../data/sim29_sdf/CHEMBL677.pdb


 13 13  0  0  0  0  0  0  0  0999 V2000
   69.1060   49.8032   54.6863 C   0  0  0  0  0  0  0  0  0  0  0  0
   69.0468   48.4396   54.8667 C   0  0  0  0  0  0  0  0  0  0  0  0
   69.2172   47.5528   53.8043 C   0  0  0  0  0  0  0  0  0  0  0  0
   69.4530   48.0176   52.5307 C   0  0  0  0  0  0  0  0  0  0  0  0
   69.6247   47.1253   51.4603 O   0  0  0  0  0  0  0  0  0  0  0  0
   69.5145   49.3797   52.3388 C   0  0  0  0  0  0  0  0  0  0  0  0
   69.7507   49.8435   51.0569 O   0  0  0  0  0  0  0  0  0  0  0  0
   69.3441   50.2483   53.3968 C   0  0  0  0  0  0  0  0  0  0  0  0
   68.9185   50.7022   55.8480 C   0  0  0  0  0  0  0  0  0  0  0  0
   68.2535   51.8709   55.5019 O   0  0  0  0  0  0  0  0  0  0  0  0
   67.0690   50.7367   57.5396 C   0  0  0  0  0  0  0  0  0  0  0  0
   68.2736   50.0269   57.0213 C   0  0  0  0  0  0  0  0  0  0  0  0
   69.2660   49.9881   58.0936 N   0  0  0  0  0  0  0  0  0  0  0  0
 12 11  1  0  0  0
 12 13  1  0  0  0
 12  9  1  0  0  0
  9 10  1  0  0  0
  9  1  1  0  0  0
  1  2  2  0  0  0
  1  8  1  0  0  0
  2  3  1  0  0  0
  3  4  2  0  0  0
  4  5  1  0  0  0
  4  6  1  0  0  0
  6  7  1  0  0  0
  6  8  2  0  0  0
M  CHG 1  13   1
M  END
> <minimizedAffinity>
-6.21533

$$$$
../data/sim29_sdf/CHEMBL677.pdb


 13 13  0  0  0  0  0  0  0  0999 V2000
   69.0934   49.6932   54.7177 C   0  0  0  0  0  0  0  0  0  0  0  0
   69.0233   48.3361   54.9104 C   0  0  0  0  0  0  0  0  0  0  0  0
   69.1946   47.5041   53.8237 C   0  0  0  0  0  0  0  0  0  0  0  0
   69.4324   47.9870   52.5552 C   0  0  0  0  0  0  0  0  0  0  0  0
   69.6037   47.1374   51.4607 O   0  0  0  0  0  0  0  0  0  0  0  0
   69.5042   49.3330   52.3540 C   0  0  0  0  0  0  0  0  0  0  0  0
   69.7462   49.8467   51.0669 O   0  0  0  0  0  0  0  0  0  0  0  0
   69.3318   50.1572   53.4466 C   0  0  0  0  0  0  0  0  0  0  0  0
   68.9233   50.6297   55.8190 C   0  0  0  0  0  0  0  0  0  0  0  0
   68.0875   51.6937   55.4290 O   0  0  0  0  0  0  0  0  0  0  0  0
   67.0889   50.7337   57.5342 C   0  0  0  0  0  0  0  0  0  0  0  0
   68.3123   50.0393   57.0565 C   0  0  0  0  0  0  0  0  0  0  0  0
   69.2872   49.9310   58.1253 N   0  0  0  0  0  0  0  0  0  0  0  0
 12 11  1  0  0  0
 12 13  1  0  0  0
 12  9  1  0  0  0
  9 10  1  0  0  0
  9  1  1  0  0  0
  1  2  2  0  0  0
  1  8  1  0  0  0
  2  3  1  0  0  0
  3  4  2  0  0  0
  4  5  1  0  0  0
  4  6  1  0  0  0
  6  7  1  0  0  0
  6  8  2  0  0  0
M  CHG 1  13   1
M  END
> <minimizedAffinity>
-6.19540

$$$$
../data/sim29_sdf/CHEMBL155014.pdb


 22 23  0  0  0  0  0  0  0  0999 V2000
   69.6686   49.4388   56.2933 C   0  0  0  0  0  0  0  0  0  0  0  0
   69.3736   48.7334   55.0148 C   0  0  0  0  0  0  0  0  0  0  0  0
   68.6228   47.5754   54.9753 C   0  0  0  0  0  0  0  0  0  0  0  0
   68.3602   46.9322   53.7899 C   0  0  0  0  0  0  0  0  0  0  0  0
   68.8358   47.4185   52.5939 C   0  0  0  0  0  0  0  0  0  0  0  0
   68.5961   46.7984   51.3506 N   0  0  0  0  0  0  0  0  0  0  0  0
   69.5943   48.5791   52.5905 C   0  0  0  0  0  0  0  0  0  0  0  0
   70.0851   49.0865   51.3808 O   0  0  0  0  0  0  0  0  0  0  0  0
   69.8346   49.1928   53.7984 C   0  0  0  0  0  0  0  0  0  0  0  0
   70.7333   48.2541   58.2069 C   0  0  0  0  0  0  0  0  0  0  0  0
   70.9659   49.0123   56.8899 C   0  0  0  0  0  0  0  0  0  0  0  0
   69.4529   50.9157   56.1941 C   0  0  0  0  0  0  0  0  0  0  0  0
   70.7186   51.7059   56.1117 C   0  0  0  0  0  0  0  0  0  0  0  0
   71.2231   52.3187   57.2432 C   0  0  0  0  0  0  0  0  0  0  0  0
   72.3954   53.0452   57.1907 C   0  0  0  0  0  0  0  0  0  0  0  0
   73.1188   53.1988   56.0253 C   0  0  0  0  0  0  0  0  0  0  0  0
   74.3291   53.9495   55.9738 N   0  0  0  0  0  0  0  0  0  0  0  0
   72.6196   52.5889   54.8937 C   0  0  0  0  0  0  0  0  0  0  0  0
   73.3404   52.7379   53.7184 O   0  0  0  0  0  0  0  0  0  0  0  0
   71.4318   51.8518   54.9451 C   0  0  0  0  0  0  0  0  0  0  0  0
   68.5674   51.4107   57.3090 C   0  0  0  0  0  0  0  0  0  0  0  0
   67.3701   50.4742   57.4661 C   0  0  0  0  0  0  0  0  0  0  0  0
 10 11  1  0  0  0
  1 11  1  0  0  0
  1  2  1  0  0  0
  1 12  1  0  0  0
  2  3  2  0  0  0
  2  9  1  0  0  0
  3  4  1  0  0  0
  4  5  2  0  0  0
  5  6  1  0  0  0
  5  7  1  0  0  0
  7  8  1  0  0  0
  7  9  2  0  0  0
 12 21  1  0  0  0
 12 13  1  0  0  0
 21 22  1  0  0  0
 13 14  2  0  0  0
 13 20  1  0  0  0
 14 15  1  0  0  0
 15 16  2  0  0  0
 16 17  1  0  0  0
 16 18  1  0  0  0
 18 19  1  0  0  0
 18 20  2  0  0  0
M  END
> <minimizedAffinity>
-7.94036

$$$$
../data/sim29_sdf/CHEMBL155014.pdb


 22 23  0  0  0  0  0  0  0  0999 V2000
   70.0588   48.9737   56.3437 C   0  0  0  0  0  0  0  0  0  0  0  0
   69.6152   48.4040   55.0697 C   0  0  0  0  0  0  0  0  0  0  0  0
   68.7562   47.3401   54.9473 C   0  0  0  0  0  0  0  0  0  0  0  0
   68.3733   46.8687   53.7136 C   0  0  0  0  0  0  0  0  0  0  0  0
   68.8229   47.4279   52.5475 C   0  0  0  0  0  0  0  0  0  0  0  0
   68.4299   46.9449   51.2575 N   0  0  0  0  0  0  0  0  0  0  0  0
   69.6854   48.4962   52.6573 C   0  0  0  0  0  0  0  0  0  0  0  0
   70.1615   49.0877   51.4820 O   0  0  0  0  0  0  0  0  0  0  0  0
   70.0747   48.9748   53.9048 C   0  0  0  0  0  0  0  0  0  0  0  0
   70.6678   47.3825   58.1864 C   0  0  0  0  0  0  0  0  0  0  0  0
   69.5522   48.0929   57.4625 C   0  0  0  0  0  0  0  0  0  0  0  0
   69.6579   50.3792   56.6501 C   0  0  0  0  0  0  0  0  0  0  0  0
   70.7402   51.3507   56.7959 C   0  0  0  0  0  0  0  0  0  0  0  0
   70.6974   52.6345   56.2245 C   0  0  0  0  0  0  0  0  0  0  0  0
   71.6780   53.5593   56.3619 C   0  0  0  0  0  0  0  0  0  0  0  0
   72.7957   53.2814   57.0867 C   0  0  0  0  0  0  0  0  0  0  0  0
   73.7990   54.2784   57.2058 N   0  0  0  0  0  0  0  0  0  0  0  0
   72.8987   52.0319   57.6760 C   0  0  0  0  0  0  0  0  0  0  0  0
   74.0323   51.7601   58.4068 O   0  0  0  0  0  0  0  0  0  0  0  0
   71.8939   51.1032   57.5281 C   0  0  0  0  0  0  0  0  0  0  0  0
   68.5842   50.5158   57.6980 C   0  0  0  0  0  0  0  0  0  0  0  0
   67.3396   51.1772   57.1800 C   0  0  0  0  0  0  0  0  0  0  0  0
 10 11  1  0  0  0
  1 11  1  0  0  0
  1  2  1  0  0  0
  1 12  1  0  0  0
  2  3  2  0  0  0
  2  9  1  0  0  0
  3  4  1  0  0  0
  4  5  2  0  0  0
  5  6  1  0  0  0
  5  7  1  0  0  0
  7  8  1  0  0  0
  7  9  2  0  0  0
 12 21  1  0  0  0
 12 13  1  0  0  0
 21 22  1  0  0  0
 13 14  2  0  0  0
 13 20  1  0  0  0
 14 15  1  0  0  0
 15 16  2  0  0  0
 16 17  1  0  0  0
 16 18  1  0  0  0
 18 19  1  0  0  0
 18 20  2  0  0  0
M  END
> <minimizedAffinity>
-7.96779

$$$$
../data/sim29_sdf/CHEMBL155014.pdb


 22 23  0  0  0  0  0  0  0  0999 V2000
   69.3772   50.2702   56.5602 C   0  0  0  0  0  0  0  0  0  0  0  0
   70.5127   51.1566   56.9688 C   0  0  0  0  0  0  0  0  0  0  0  0
   71.2461   50.8471   58.0741 C   0  0  0  0  0  0  0  0  0  0  0  0
   72.2802   51.6943   58.4074 C   0  0  0  0  0  0  0  0  0  0  0  0
   72.5904   52.8319   57.6655 C   0  0  0  0  0  0  0  0  0  0  0  0
   73.6641   53.6785   58.0422 N   0  0  0  0  0  0  0  0  0  0  0  0
   71.8332   53.1310   56.5449 C   0  0  0  0  0  0  0  0  0  0  0  0
   72.1459   54.2624   55.8108 O   0  0  0  0  0  0  0  0  0  0  0  0
   70.7826   52.2688   56.2059 C   0  0  0  0  0  0  0  0  0  0  0  0
   67.1647   50.9983   57.4725 C   0  0  0  0  0  0  0  0  0  0  0  0
   68.4590   50.2494   57.7835 C   0  0  0  0  0  0  0  0  0  0  0  0
   69.8111   48.8931   56.2717 C   0  0  0  0  0  0  0  0  0  0  0  0
   69.4790   48.3893   54.9287 C   0  0  0  0  0  0  0  0  0  0  0  0
   68.5757   47.3513   54.8451 C   0  0  0  0  0  0  0  0  0  0  0  0
   68.2065   46.8058   53.6281 C   0  0  0  0  0  0  0  0  0  0  0  0
   68.7494   47.3043   52.4457 C   0  0  0  0  0  0  0  0  0  0  0  0
   68.4159   46.7956   51.1764 N   0  0  0  0  0  0  0  0  0  0  0  0
   69.6556   48.3453   52.5300 C   0  0  0  0  0  0  0  0  0  0  0  0
   70.2491   48.9074   51.4054 O   0  0  0  0  0  0  0  0  0  0  0  0
   70.0031   48.8665   53.7581 C   0  0  0  0  0  0  0  0  0  0  0  0
   69.2486   47.9174   57.2698 C   0  0  0  0  0  0  0  0  0  0  0  0
   70.2562   47.0833   57.9871 C   0  0  0  0  0  0  0  0  0  0  0  0
 10 11  1  0  0  0
  1 11  1  0  0  0
  1  2  1  0  0  0
  1 12  1  0  0  0
  2  3  2  0  0  0
  2  9  1  0  0  0
  3  4  1  0  0  0
  4  5  2  0  0  0
  5  6  1  0  0  0
  5  7  1  0  0  0
  7  8  1  0  0  0
  7  9  2  0  0  0
 12 21  1  0  0  0
 12 13  1  0  0  0
 21 22  1  0  0  0
 13 14  2  0  0  0
 13 20  1  0  0  0
 14 15  1  0  0  0
 15 16  2  0  0  0
 16 17  1  0  0  0
 16 18  1  0  0  0
 18 19  1  0  0  0
 18 20  2  0  0  0
M  END
> <minimizedAffinity>
-8.04840

$$$$
../data/sim29_sdf/CHEMBL2062273.pdb


 12 12  0  0  0  0  0  0  0  0999 V2000
   69.1124   48.0975   54.7885 C   0  0  0  0  0  0  0  0  0  0  0  0
   69.1753   49.4488   54.6459 C   0  0  0  0  0  0  0  0  0  0  0  0
   69.3716   50.0634   53.4125 C   0  0  0  0  0  0  0  0  0  0  0  0
   69.5101   49.2836   52.2848 C   0  0  0  0  0  0  0  0  0  0  0  0
   69.7102   49.8740   51.0230 O   0  0  0  0  0  0  0  0  0  0  0  0
   69.4492   47.9108   52.4099 C   0  0  0  0  0  0  0  0  0  0  0  0
   69.5914   47.1309   51.2484 O   0  0  0  0  0  0  0  0  0  0  0  0
   69.2521   47.3261   53.6480 C   0  0  0  0  0  0  0  0  0  0  0  0
   68.9038   47.4351   56.0897 C   0  0  0  0  0  0  0  0  0  0  0  0
   68.0431   46.3774   55.9270 O   0  0  0  0  0  0  0  0  0  0  0  0
   67.0529   48.1658   57.4613 N   0  0  0  0  0  0  0  0  0  0  0  0
   68.4511   48.3737   57.1564 C   0  0  0  0  0  0  0  0  0  0  0  0
 11 12  1  0  0  0
 12  9  1  0  0  0
  9 10  1  0  0  0
  9  1  1  0  0  0
  1  2  2  0  0  0
  1  8  1  0  0  0
  2  3  1  0  0  0
  3  4  2  0  0  0
  4  5  1  0  0  0
  4  6  1  0  0  0
  6  7  1  0  0  0
  6  8  2  0  0  0
M  CHG 1  11   1
M  END
> <minimizedAffinity>
-6.16052

$$$$
../data/sim29_sdf/CHEMBL288787.pdb


 11 11  0  0  0  0  0  0  0  0999 V2000
   69.0163   47.7423   54.7515 C   0  0  0  0  0  0  0  0  0  0  0  0
   69.1193   49.1167   54.7075 C   0  0  0  0  0  0  0  0  0  0  0  0
   69.3580   49.8196   53.5447 C   0  0  0  0  0  0  0  0  0  0  0  0
   69.5069   49.1580   52.3475 C   0  0  0  0  0  0  0  0  0  0  0  0
   69.7493   49.8270   51.1481 O   0  0  0  0  0  0  0  0  0  0  0  0
   69.4063   47.7830   52.3754 C   0  0  0  0  0  0  0  0  0  0  0  0
   69.5614   47.1269   51.1442 O   0  0  0  0  0  0  0  0  0  0  0  0
   69.1672   47.0873   53.5444 C   0  0  0  0  0  0  0  0  0  0  0  0
   68.4270   45.6303   55.8129 N   0  0  0  0  0  0  0  0  0  0  0  0
   68.7579   47.0162   56.0245 C   0  0  0  0  0  0  0  0  0  0  0  0
   67.6761   47.5685   56.7251 O   0  0  0  0  0  0  0  0  0  0  0  0
 10  9  1  0  0  0
 10 11  1  0  0  0
 10  1  1  0  0  0
  1  2  2  0  0  0
  1  8  1  0  0  0
  2  3  1  0  0  0
  3  4  2  0  0  0
  4  5  1  0  0  0
  4  6  1  0  0  0
  6  7  1  0  0  0
  6  8  2  0  0  0
M  CHG 1   9   1
M  END
> <minimizedAffinity>
-6.29730

$$$$
../data/sim29_sdf/CHEMBL432.pdb


 12 12  0  0  0  0  0  0  0  0999 V2000
   69.3763   47.9809   53.3349 C   0  0  0  0  0  0  0  0  0  0  0  0
   68.8886   46.9689   52.5313 C   0  0  0  0  0  0  0  0  0  0  0  0
   68.3256   45.8198   53.0556 C   0  0  0  0  0  0  0  0  0  0  0  0
   68.2245   45.6284   54.4162 C   0  0  0  0  0  0  0  0  0  0  0  0
   67.6548   44.4638   54.9534 O   0  0  0  0  0  0  0  0  0  0  0  0
   68.7083   46.6338   55.2249 C   0  0  0  0  0  0  0  0  0  0  0  0
   68.6305   46.4909   56.5975 O   0  0  0  0  0  0  0  0  0  0  0  0
   69.2697   47.7799   54.6974 C   0  0  0  0  0  0  0  0  0  0  0  0
   69.9795   49.2156   52.7708 C   0  0  0  0  0  0  0  0  0  0  0  0
   69.7634   49.2616   51.3763 O   0  0  0  0  0  0  0  0  0  0  0  0
   70.3239   51.5264   53.5114 N   0  0  0  0  0  0  0  0  0  0  0  0
   69.3627   50.4602   53.3402 C   0  0  0  0  0  0  0  0  0  0  0  0
 11 12  1  0  0  0
 12  9  1  0  0  0
  9 10  1  0  0  0
  9  1  1  0  0  0
  1  2  2  0  0  0
  1  8  1  0  0  0
  2  3  1  0  0  0
  3  4  2  0  0  0
  4  5  1  0  0  0
  4  6  1  0  0  0
  6  7  1  0  0  0
  6  8  2  0  0  0
M  CHG 1  11   1
M  END
> <minimizedAffinity>
-5.96778

$$$$
../data/sim29_sdf/CHEMBL432.pdb


 12 12  0  0  0  0  0  0  0  0999 V2000
   69.3591   48.0002   53.4885 C   0  0  0  0  0  0  0  0  0  0  0  0
   68.9836   47.8010   52.1763 C   0  0  0  0  0  0  0  0  0  0  0  0
   68.2374   46.6943   51.7914 C   0  0  0  0  0  0  0  0  0  0  0  0
   67.8455   45.7505   52.7181 C   0  0  0  0  0  0  0  0  0  0  0  0
   67.0962   44.6418   52.3203 O   0  0  0  0  0  0  0  0  0  0  0  0
   68.2185   45.9456   54.0318 C   0  0  0  0  0  0  0  0  0  0  0  0
   67.8239   44.9915   54.9705 O   0  0  0  0  0  0  0  0  0  0  0  0
   68.9602   47.0477   54.4053 C   0  0  0  0  0  0  0  0  0  0  0  0
   70.1645   49.2007   53.8876 C   0  0  0  0  0  0  0  0  0  0  0  0
   71.3423   49.2656   53.1452 O   0  0  0  0  0  0  0  0  0  0  0  0
   70.2439   51.5268   53.2622 N   0  0  0  0  0  0  0  0  0  0  0  0
   69.3618   50.4740   53.7312 C   0  0  0  0  0  0  0  0  0  0  0  0
 11 12  1  0  0  0
 12  9  1  0  0  0
  9 10  1  0  0  0
  9  1  1  0  0  0
  1  2  2  0  0  0
  1  8  1  0  0  0
  2  3  1  0  0  0
  3  4  2  0  0  0
  4  5  1  0  0  0
  4  6  1  0  0  0
  6  7  1  0  0  0
  6  8  2  0  0  0
M  CHG 1  11   1
M  END
> <minimizedAffinity>
-5.93885

$$$$
../data/sim29_sdf/CHEMBL2062274.pdb


 12 12  0  0  0  0  0  0  0  0999 V2000
   69.0023   47.9219   53.2601 C   0  0  0  0  0  0  0  0  0  0  0  0
   68.5516   46.8488   52.5206 C   0  0  0  0  0  0  0  0  0  0  0  0
   68.1454   45.6588   53.1351 C   0  0  0  0  0  0  0  0  0  0  0  0
   68.1822   45.5150   54.5049 C   0  0  0  0  0  0  0  0  0  0  0  0
   67.7731   44.3194   55.0878 O   0  0  0  0  0  0  0  0  0  0  0  0
   68.6328   46.5860   55.2438 C   0  0  0  0  0  0  0  0  0  0  0  0
   68.6698   46.4424   56.6206 O   0  0  0  0  0  0  0  0  0  0  0  0
   69.0316   47.7581   54.6397 C   0  0  0  0  0  0  0  0  0  0  0  0
   69.4329   49.1824   52.6383 C   0  0  0  0  0  0  0  0  0  0  0  0
   70.3107   48.9036   51.5803 O   0  0  0  0  0  0  0  0  0  0  0  0
   71.5275   49.8624   53.7051 N   0  0  0  0  0  0  0  0  0  0  0  0
   70.0826   50.1260   53.6242 C   0  0  0  0  0  0  0  0  0  0  0  0
 11 12  1  0  0  0
 12  9  1  0  0  0
  9 10  1  0  0  0
  9  1  1  0  0  0
  1  2  2  0  0  0
  1  8  1  0  0  0
  2  3  1  0  0  0
  3  4  2  0  0  0
  4  5  1  0  0  0
  4  6  1  0  0  0
  6  7  1  0  0  0
  6  8  2  0  0  0
M  CHG 1  11   1
M  END
> <minimizedAffinity>
-6.16389

$$$$
../data/sim29_sdf/CHEMBL1320902.pdb


 13 13  0  0  0  0  0  0  0  0999 V2000
   68.5870   47.6949   55.2514 C   0  0  0  0  0  0  0  0  0  0  0  0
   67.9779   46.7221   54.4896 C   0  0  0  0  0  0  0  0  0  0  0  0
   68.3165   46.5241   53.1660 C   0  0  0  0  0  0  0  0  0  0  0  0
   69.2792   47.3025   52.5809 C   0  0  0  0  0  0  0  0  0  0  0  0
   69.6537   47.1312   51.2356 O   0  0  0  0  0  0  0  0  0  0  0  0
   69.9067   48.2827   53.3146 C   0  0  0  0  0  0  0  0  0  0  0  0
   70.8826   49.0620   52.6976 O   0  0  0  0  0  0  0  0  0  0  0  0
   69.5528   48.4729   54.6540 C   0  0  0  0  0  0  0  0  0  0  0  0
   68.2611   47.9496   56.6722 C   0  0  0  0  0  0  0  0  0  0  0  0
   68.9122   47.0853   57.5472 O   0  0  0  0  0  0  0  0  0  0  0  0
   67.2775   50.0117   57.6801 C   0  0  0  0  0  0  0  0  0  0  0  0
   68.4995   49.4092   57.0225 C   0  0  0  0  0  0  0  0  0  0  0  0
   69.5941   49.5557   57.9775 N   0  0  0  0  0  0  0  0  0  0  0  0
 12 11  1  0  0  0
 12 13  1  0  0  0
 12  9  1  0  0  0
  9 10  1  0  0  0
  9  1  1  0  0  0
  1  2  2  0  0  0
  1  8  1  0  0  0
  2  3  1  0  0  0
  3  4  2  0  0  0
  4  5  1  0  0  0
  4  6  1  0  0  0
  6  7  1  0  0  0
  6  8  2  0  0  0
M  CHG 1  13   1
M  END
> <minimizedAffinity>
-6.31204

$$$$
../data/sim29_sdf/CHEMBL1320902.pdb


 13 13  0  0  0  0  0  0  0  0999 V2000
   69.1284   49.8025   54.6494 C   0  0  0  0  0  0  0  0  0  0  0  0
   69.0632   48.4461   54.8628 C   0  0  0  0  0  0  0  0  0  0  0  0
   69.2233   47.5437   53.8048 C   0  0  0  0  0  0  0  0  0  0  0  0
   69.4521   47.9907   52.5219 C   0  0  0  0  0  0  0  0  0  0  0  0
   69.6179   47.1277   51.4364 O   0  0  0  0  0  0  0  0  0  0  0  0
   69.5174   49.3419   52.3080 C   0  0  0  0  0  0  0  0  0  0  0  0
   69.7448   49.8321   51.0349 O   0  0  0  0  0  0  0  0  0  0  0  0
   69.3575   50.2207   53.3577 C   0  0  0  0  0  0  0  0  0  0  0  0
   68.9574   50.7297   55.7710 C   0  0  0  0  0  0  0  0  0  0  0  0
   68.2198   51.8628   55.4304 O   0  0  0  0  0  0  0  0  0  0  0  0
   67.1009   50.9038   57.4400 C   0  0  0  0  0  0  0  0  0  0  0  0
   68.3086   50.1109   56.9752 C   0  0  0  0  0  0  0  0  0  0  0  0
   69.1834   49.9376   58.0878 N   0  0  0  0  0  0  0  0  0  0  0  0
 12 11  1  0  0  0
 12 13  1  0  0  0
 12  9  1  0  0  0
  9 10  1  0  0  0
  9  1  1  0  0  0
  1  2  2  0  0  0
  1  8  1  0  0  0
  2  3  1  0  0  0
  3  4  2  0  0  0
  4  5  1  0  0  0
  4  6  1  0  0  0
  6  7  1  0  0  0
  6  8  2  0  0  0
M  CHG 1  13   1
M  END
> <minimizedAffinity>
-6.22713

$$$$
../data/sim29_sdf/CHEMBL764.pdb


 13 13  0  0  0  0  0  0  0  0999 V2000
   68.9954   47.8888   53.3707 C   0  0  0  0  0  0  0  0  0  0  0  0
   68.5263   46.8657   52.5764 C   0  0  0  0  0  0  0  0  0  0  0  0
   68.1305   45.6782   53.1733 C   0  0  0  0  0  0  0  0  0  0  0  0
   68.1855   45.4699   54.5337 C   0  0  0  0  0  0  0  0  0  0  0  0
   67.8003   44.3005   55.1617 O   0  0  0  0  0  0  0  0  0  0  0  0
   68.6698   46.5397   55.2967 C   0  0  0  0  0  0  0  0  0  0  0  0
   68.7371   46.3624   56.6632 O   0  0  0  0  0  0  0  0  0  0  0  0
   69.0636   47.7151   54.7352 C   0  0  0  0  0  0  0  0  0  0  0  0
   69.4313   49.1877   52.7488 C   0  0  0  0  0  0  0  0  0  0  0  0
   70.2825   48.9653   51.6666 O   0  0  0  0  0  0  0  0  0  0  0  0
   69.8541   51.4412   53.7568 C   0  0  0  0  0  0  0  0  0  0  0  0
   70.1450   49.9668   53.8428 C   0  0  0  0  0  0  0  0  0  0  0  0
   71.5782   49.7675   53.6800 N   0  0  0  0  0  0  0  0  0  0  0  0
 12 11  1  0  0  0
 12 13  1  0  0  0
 12  9  1  0  0  0
  9 10  1  0  0  0
  9  1  1  0  0  0
  1  2  2  0  0  0
  1  8  1  0  0  0
  2  3  1  0  0  0
  3  4  2  0  0  0
  4  5  1  0  0  0
  4  6  1  0  0  0
  6  7  1  0  0  0
  6  8  2  0  0  0
M  CHG 1  13   1
M  END
> <minimizedAffinity>
-6.54638

$$$$
../data/sim29_sdf/CHEMBL764.pdb


 13 13  0  0  0  0  0  0  0  0999 V2000
   69.3525   47.9971   53.5274 C   0  0  0  0  0  0  0  0  0  0  0  0
   69.0001   47.8171   52.2071 C   0  0  0  0  0  0  0  0  0  0  0  0
   68.2637   46.7307   51.7792 C   0  0  0  0  0  0  0  0  0  0  0  0
   67.8412   45.7602   52.6657 C   0  0  0  0  0  0  0  0  0  0  0  0
   67.0942   44.6553   52.2414 O   0  0  0  0  0  0  0  0  0  0  0  0
   68.1883   45.9304   53.9864 C   0  0  0  0  0  0  0  0  0  0  0  0
   67.7815   44.9785   54.9007 O   0  0  0  0  0  0  0  0  0  0  0  0
   68.9226   47.0165   54.4080 C   0  0  0  0  0  0  0  0  0  0  0  0
   70.1464   49.1761   53.9630 C   0  0  0  0  0  0  0  0  0  0  0  0
   71.3152   49.3206   53.1882 O   0  0  0  0  0  0  0  0  0  0  0  0
   68.8907   51.0258   55.1140 C   0  0  0  0  0  0  0  0  0  0  0  0
   69.3828   50.4670   53.8226 C   0  0  0  0  0  0  0  0  0  0  0  0
   70.2999   51.4281   53.2098 N   0  0  0  0  0  0  0  0  0  0  0  0
 12 11  1  0  0  0
 12 13  1  0  0  0
 12  9  1  0  0  0
  9 10  1  0  0  0
  9  1  1  0  0  0
  1  2  2  0  0  0
  1  8  1  0  0  0
  2  3  1  0  0  0
  3  4  2  0  0  0
  4  5  1  0  0  0
  4  6  1  0  0  0
  6  7  1  0  0  0
  6  8  2  0  0  0
M  CHG 1  13   1
M  END
> <minimizedAffinity>
-6.33501

$$$$
../data/sim29_sdf/CHEMBL1434513.pdb


 12 12  0  0  0  0  0  0  0  0999 V2000
   68.7896   47.7939   54.7667 C   0  0  0  0  0  0  0  0  0  0  0  0
   68.9751   49.1643   54.6956 C   0  0  0  0  0  0  0  0  0  0  0  0
   69.3408   49.8072   53.5495 C   0  0  0  0  0  0  0  0  0  0  0  0
   69.5339   49.0323   52.4002 C   0  0  0  0  0  0  0  0  0  0  0  0
   69.9011   49.7125   51.2670 O   0  0  0  0  0  0  0  0  0  0  0  0
   69.3595   47.6648   52.4301 C   0  0  0  0  0  0  0  0  0  0  0  0
   69.5550   46.9008   51.2775 O   0  0  0  0  0  0  0  0  0  0  0  0
   68.9894   47.0730   53.6205 C   0  0  0  0  0  0  0  0  0  0  0  0
   68.3965   47.2329   56.0640 C   0  0  0  0  0  0  0  0  0  0  0  0
   69.2368   46.1947   56.4427 O   0  0  0  0  0  0  0  0  0  0  0  0
   66.9203   48.2816   57.6153 N   0  0  0  0  0  0  0  0  0  0  0  0
   68.2977   48.2487   57.1584 C   0  0  0  0  0  0  0  0  0  0  0  0
 11 12  1  0  0  0
 12  9  1  0  0  0
  9 10  1  0  0  0
  9  1  1  0  0  0
  1  2  2  0  0  0
  1  8  1  0  0  0
  2  3  1  0  0  0
  3  4  2  0  0  0
  4  5  1  0  0  0
  4  6  1  0  0  0
  6  7  1  0  0  0
  6  8  2  0  0  0
M  CHG 1  11   1
M  END
> <minimizedAffinity>
-6.03855

$$$$
../data/sim29_sdf/CHEMBL1734806.pdb


 12 12  0  0  0  0  0  0  0  0999 V2000
   69.1447   48.2046   54.7280 C   0  0  0  0  0  0  0  0  0  0  0  0
   69.1885   49.5874   54.6340 C   0  0  0  0  0  0  0  0  0  0  0  0
   69.3731   50.1237   53.3821 C   0  0  0  0  0  0  0  0  0  0  0  0
   69.5108   49.3103   52.2449 C   0  0  0  0  0  0  0  0  0  0  0  0
   69.6950   49.9274   51.0133 O   0  0  0  0  0  0  0  0  0  0  0  0
   69.4644   47.9392   52.3619 C   0  0  0  0  0  0  0  0  0  0  0  0
   69.5982   47.1061   51.2606 O   0  0  0  0  0  0  0  0  0  0  0  0
   69.2774   47.3878   53.6354 C   0  0  0  0  0  0  0  0  0  0  0  0
   68.9433   47.6548   56.1097 C   0  0  0  0  0  0  0  0  0  0  0  0
   68.0182   46.5837   56.0547 O   0  0  0  0  0  0  0  0  0  0  0  0
   67.0242   48.1939   57.5087 N   0  0  0  0  0  0  0  0  0  0  0  0
   68.2749   48.7238   56.9356 C   0  0  0  0  0  0  0  0  0  0  0  0
 11 12  1  0  0  0
 12  9  1  0  0  0
  9 10  1  0  0  0
  9  1  1  0  0  0
  1  2  2  0  0  0
  1  8  1  0  0  0
  2  3  1  0  0  0
  3  4  2  0  0  0
  4  5  1  0  0  0
  4  6  1  0  0  0
  6  7  1  0  0  0
  6  8  2  0  0  0
M  CHG 1  11   1
M  END
> <minimizedAffinity>
-6.14599

$$$$
../data/sim29_sdf/CHEMBL1356607.pdb


 12 12  0  0  0  0  0  0  0  0999 V2000
   68.8800   47.8741   54.8028 C   0  0  0  0  0  0  0  0  0  0  0  0
   69.0563   49.2366   54.7197 C   0  0  0  0  0  0  0  0  0  0  0  0
   69.3808   49.8648   53.5153 C   0  0  0  0  0  0  0  0  0  0  0  0
   69.5334   49.1164   52.3662 C   0  0  0  0  0  0  0  0  0  0  0  0
   69.8583   49.6922   51.1321 O   0  0  0  0  0  0  0  0  0  0  0  0
   69.3567   47.7595   52.4516 C   0  0  0  0  0  0  0  0  0  0  0  0
   69.5107   46.9981   51.2895 O   0  0  0  0  0  0  0  0  0  0  0  0
   69.0345   47.1368   53.6477 C   0  0  0  0  0  0  0  0  0  0  0  0
   68.5359   47.2274   56.0883 C   0  0  0  0  0  0  0  0  0  0  0  0
   68.5196   45.8273   55.9711 O   0  0  0  0  0  0  0  0  0  0  0  0
   69.8433   46.3695   57.8833 N   0  0  0  0  0  0  0  0  0  0  0  0
   69.4939   47.6071   57.1971 C   0  0  0  0  0  0  0  0  0  0  0  0
 11 12  1  0  0  0
 12  9  1  0  0  0
  9 10  1  0  0  0
  9  1  1  0  0  0
  1  2  2  0  0  0
  1  8  1  0  0  0
  2  3  1  0  0  0
  3  4  2  0  0  0
  4  5  1  0  0  0
  4  6  1  0  0  0
  6  7  1  0  0  0
  6  8  2  0  0  0
M  CHG 1  11   1
M  END
> <minimizedAffinity>
-6.02158

$$$$
../data/sim29_sdf/CHEMBL1545498.pdb


 11 11  0  0  0  0  0  0  0  0999 V2000
   69.0402   47.6599   55.0255 C   0  0  0  0  0  0  0  0  0  0  0  0
   68.2218   46.5935   54.6514 C   0  0  0  0  0  0  0  0  0  0  0  0
   68.0228   46.3095   53.3159 C   0  0  0  0  0  0  0  0  0  0  0  0
   68.6425   47.0906   52.3644 C   0  0  0  0  0  0  0  0  0  0  0  0
   68.4199   46.7756   51.0448 O   0  0  0  0  0  0  0  0  0  0  0  0
   69.4697   48.1663   52.7114 C   0  0  0  0  0  0  0  0  0  0  0  0
   70.0813   48.9368   51.6899 N   0  0  0  0  0  0  0  0  0  0  0  0
   69.6494   48.4269   54.0549 C   0  0  0  0  0  0  0  0  0  0  0  0
   67.8923   48.2843   57.0521 C   0  0  0  0  0  0  0  0  0  0  0  0
   69.2536   47.9661   56.4642 C   0  0  0  0  0  0  0  0  0  0  0  0
   69.9078   46.8092   57.1951 C   0  0  0  0  0  0  0  0  0  0  0  0
  9 10  1  0  0  0
 10 11  1  0  0  0
 10  1  1  0  0  0
  1  2  2  0  0  0
  1  8  1  0  0  0
  2  3  1  0  0  0
  3  4  2  0  0  0
  4  5  1  0  0  0
  4  6  1  0  0  0
  6  7  1  0  0  0
  6  8  2  0  0  0
M  END
> <minimizedAffinity>
-5.79829

$$$$
../data/sim29_sdf/CHEMBL2130595.pdb


 12 12  0  0  0  0  0  0  0  0999 V2000
   69.3232   47.9021   53.5395 C   0  0  0  0  0  0  0  0  0  0  0  0
   68.9853   47.7910   52.2240 C   0  0  0  0  0  0  0  0  0  0  0  0
   68.2474   46.7390   51.7660 C   0  0  0  0  0  0  0  0  0  0  0  0
   67.8447   45.7697   52.6879 C   0  0  0  0  0  0  0  0  0  0  0  0
   67.1016   44.7079   52.2269 O   0  0  0  0  0  0  0  0  0  0  0  0
   68.1781   45.8680   54.0144 C   0  0  0  0  0  0  0  0  0  0  0  0
   67.8010   44.9400   54.9442 O   0  0  0  0  0  0  0  0  0  0  0  0
   68.9256   46.9540   54.4211 C   0  0  0  0  0  0  0  0  0  0  0  0
   70.1268   49.0765   53.9581 C   0  0  0  0  0  0  0  0  0  0  0  0
   71.2243   49.1590   53.1036 O   0  0  0  0  0  0  0  0  0  0  0  0
   70.1037   51.3837   53.2079 N   0  0  0  0  0  0  0  0  0  0  0  0
   69.3475   50.3655   53.8692 C   0  0  0  0  0  0  0  0  0  0  0  0
 11 12  1  0  0  0
 12  9  1  0  0  0
  9 10  1  0  0  0
  9  1  1  0  0  0
  1  2  2  0  0  0
  1  8  1  0  0  0
  2  3  1  0  0  0
  3  4  2  0  0  0
  4  5  1  0  0  0
  4  6  1  0  0  0
  6  7  1  0  0  0
  6  8  2  0  0  0
M  CHG 1  11   1
M  END
> <minimizedAffinity>
-6.00965

$$$$
../data/sim29_sdf/CHEMBL18824.pdb


 12 12  0  0  0  0  0  0  0  0999 V2000
   69.1088   48.1974   54.7741 C   0  0  0  0  0  0  0  0  0  0  0  0
   69.1610   49.5715   54.5854 C   0  0  0  0  0  0  0  0  0  0  0  0
   69.3630   50.1350   53.3490 C   0  0  0  0  0  0  0  0  0  0  0  0
   69.5183   49.3293   52.2649 C   0  0  0  0  0  0  0  0  0  0  0  0
   69.7241   49.8957   51.0090 O   0  0  0  0  0  0  0  0  0  0  0  0
   69.4752   47.9788   52.3989 C   0  0  0  0  0  0  0  0  0  0  0  0
   69.6324   47.1358   51.2977 O   0  0  0  0  0  0  0  0  0  0  0  0
   69.2675   47.4070   53.6680 C   0  0  0  0  0  0  0  0  0  0  0  0
   68.9001   47.6652   56.1309 C   0  0  0  0  0  0  0  0  0  0  0  0
   68.1462   46.4638   56.0648 O   0  0  0  0  0  0  0  0  0  0  0  0
   66.9489   48.1840   57.5423 N   0  0  0  0  0  0  0  0  0  0  0  0
   68.2599   48.5734   57.1087 C   0  0  0  0  0  0  0  0  0  0  0  0
 11 12  1  0  0  0
 12  9  1  0  0  0
  9 10  1  0  0  0
  9  1  1  0  0  0
  1  2  2  0  0  0
  1  8  1  0  0  0
  2  3  1  0  0  0
  3  4  2  0  0  0
  4  5  1  0  0  0
  4  6  1  0  0  0
  6  7  1  0  0  0
  6  8  2  0  0  0
M  CHG 1  11   1
M  END
> <minimizedAffinity>
-6.16105

$$$$
../data/sim29_sdf/CHEMBL18824.pdb


 12 12  0  0  0  0  0  0  0  0999 V2000
   69.0624   48.3304   54.8251 C   0  0  0  0  0  0  0  0  0  0  0  0
   69.1219   49.6863   54.5957 C   0  0  0  0  0  0  0  0  0  0  0  0
   69.3510   50.1980   53.3145 C   0  0  0  0  0  0  0  0  0  0  0  0
   69.5189   49.3205   52.2633 C   0  0  0  0  0  0  0  0  0  0  0  0
   69.7473   49.8274   50.9891 O   0  0  0  0  0  0  0  0  0  0  0  0
   69.4645   47.9637   52.4651 C   0  0  0  0  0  0  0  0  0  0  0  0
   69.6424   47.1300   51.3665 O   0  0  0  0  0  0  0  0  0  0  0  0
   69.2375   47.4958   53.7413 C   0  0  0  0  0  0  0  0  0  0  0  0
   68.8249   47.7203   56.1486 C   0  0  0  0  0  0  0  0  0  0  0  0
   67.9586   46.6455   56.0497 O   0  0  0  0  0  0  0  0  0  0  0  0
   66.9439   48.2214   57.5187 N   0  0  0  0  0  0  0  0  0  0  0  0
   68.2863   48.6894   57.1587 C   0  0  0  0  0  0  0  0  0  0  0  0
 11 12  1  0  0  0
 12  9  1  0  0  0
  9 10  1  0  0  0
  9  1  1  0  0  0
  1  2  2  0  0  0
  1  8  1  0  0  0
  2  3  1  0  0  0
  3  4  2  0  0  0
  4  5  1  0  0  0
  4  6  1  0  0  0
  6  7  1  0  0  0
  6  8  2  0  0  0
M  CHG 1  11   1
M  END
> <minimizedAffinity>
-6.12455

$$$$
../data/sim29_sdf/CHEMBL85811.pdb


 16 17  0  0  0  0  0  0  0  0999 V2000
   70.7161   54.1623   56.3256 N   0  0  0  0  0  0  0  0  0  0  0  0
   70.3602   52.9027   55.7879 C   0  0  0  0  0  0  0  0  0  0  0  0
   69.0411   52.5722   55.6281 C   0  0  0  0  0  0  0  0  0  0  0  0
   68.7436   51.3343   55.1015 C   0  0  0  0  0  0  0  0  0  0  0  0
   69.6933   50.4091   54.7257 C   0  0  0  0  0  0  0  0  0  0  0  0
   71.0238   50.7565   54.8936 C   0  0  0  0  0  0  0  0  0  0  0  0
   71.3495   52.0010   55.4232 C   0  0  0  0  0  0  0  0  0  0  0  0
   72.6756   52.3615   55.5974 O   0  0  0  0  0  0  0  0  0  0  0  0
   69.2921   49.1144   54.1710 C   0  0  0  0  0  0  0  0  0  0  0  0
   68.5853   48.2337   54.9613 C   0  0  0  0  0  0  0  0  0  0  0  0
   68.1771   46.9915   54.4996 C   0  0  0  0  0  0  0  0  0  0  0  0
   68.4680   46.5861   53.2155 C   0  0  0  0  0  0  0  0  0  0  0  0
   68.0773   45.3273   52.6852 N   0  0  0  0  0  0  0  0  0  0  0  0
   69.1826   47.4691   52.4089 C   0  0  0  0  0  0  0  0  0  0  0  0
   69.4728   47.0561   51.1167 O   0  0  0  0  0  0  0  0  0  0  0  0
   69.5859   48.7161   52.8868 C   0  0  0  0  0  0  0  0  0  0  0  0
  1  2  1  0  0  0
  2  3  2  0  0  0
  2  7  1  0  0  0
  3  4  1  0  0  0
  4  5  2  0  0  0
  5  9  1  0  0  0
  5  6  1  0  0  0
  9 10  2  0  0  0
  9 16  1  0  0  0
 10 11  1  0  0  0
 11 12  2  0  0  0
 12 13  1  0  0  0
 12 14  1  0  0  0
 14 15  1  0  0  0
 14 16  2  0  0  0
  6  7  2  0  0  0
  7  8  1  0  0  0
M  END
> <minimizedAffinity>
-6.86784

$$$$
../data/sim29_sdf/CHEMBL85811.pdb


 16 17  0  0  0  0  0  0  0  0999 V2000
   67.3494   45.2806   52.5144 N   0  0  0  0  0  0  0  0  0  0  0  0
   68.0876   46.3284   53.1363 C   0  0  0  0  0  0  0  0  0  0  0  0
   67.9414   46.5696   54.4737 C   0  0  0  0  0  0  0  0  0  0  0  0
   68.6559   47.5809   55.0664 C   0  0  0  0  0  0  0  0  0  0  0  0
   69.5378   48.3971   54.3885 C   0  0  0  0  0  0  0  0  0  0  0  0
   69.6749   48.1362   53.0225 C   0  0  0  0  0  0  0  0  0  0  0  0
   68.9590   47.1190   52.4191 C   0  0  0  0  0  0  0  0  0  0  0  0
   69.1359   46.9039   51.0499 O   0  0  0  0  0  0  0  0  0  0  0  0
   70.2845   49.4609   55.0369 C   0  0  0  0  0  0  0  0  0  0  0  0
   70.1988   49.5943   56.3920 C   0  0  0  0  0  0  0  0  0  0  0  0
   70.8998   50.6018   57.0508 C   0  0  0  0  0  0  0  0  0  0  0  0
   71.7019   51.4912   56.3292 C   0  0  0  0  0  0  0  0  0  0  0  0
   72.4100   52.5114   56.9995 N   0  0  0  0  0  0  0  0  0  0  0  0
   71.7857   51.3516   54.9600 C   0  0  0  0  0  0  0  0  0  0  0  0
   72.5855   52.2428   54.2598 O   0  0  0  0  0  0  0  0  0  0  0  0
   71.0728   50.3361   54.3352 C   0  0  0  0  0  0  0  0  0  0  0  0
  1  2  1  0  0  0
  2  3  2  0  0  0
  2  7  1  0  0  0
  3  4  1  0  0  0
  4  5  2  0  0  0
  5  9  1  0  0  0
  5  6  1  0  0  0
  9 10  2  0  0  0
  9 16  1  0  0  0
 10 11  1  0  0  0
 11 12  2  0  0  0
 12 13  1  0  0  0
 12 14  1  0  0  0
 14 15  1  0  0  0
 14 16  2  0  0  0
  6  7  2  0  0  0
  7  8  1  0  0  0
M  END
> <minimizedAffinity>
-6.93563

$$$$
../data/sim29_sdf/CHEMBL2074780.pdb


 13 13  0  0  0  0  0  0  0  0999 V2000
   68.9097   47.9403   55.1660 C   0  0  0  0  0  0  0  0  0  0  0  0
   68.2881   46.8157   54.6189 C   0  0  0  0  0  0  0  0  0  0  0  0
   68.4295   46.4803   53.3015 C   0  0  0  0  0  0  0  0  0  0  0  0
   69.2022   47.2660   52.4859 C   0  0  0  0  0  0  0  0  0  0  0  0
   69.3589   46.9419   51.1444 O   0  0  0  0  0  0  0  0  0  0  0  0
   69.8283   48.3805   52.9929 C   0  0  0  0  0  0  0  0  0  0  0  0
   70.5952   49.1392   52.1338 O   0  0  0  0  0  0  0  0  0  0  0  0
   69.6790   48.7139   54.3341 C   0  0  0  0  0  0  0  0  0  0  0  0
   68.7025   48.2158   56.5933 C   0  0  0  0  0  0  0  0  0  0  0  0
   67.4415   47.7793   57.0170 O   0  0  0  0  0  0  0  0  0  0  0  0
   70.7272   48.2883   57.8043 O   0  0  0  0  0  0  0  0  0  0  0  0
   69.7202   47.5995   57.4307 C   0  0  0  0  0  0  0  0  0  0  0  0
   69.6939   46.2683   57.8788 O   0  0  0  0  0  0  0  0  0  0  0  0
 11 12  2  0  0  0
 12 13  1  0  0  0
 12  9  1  0  0  0
  9 10  1  0  0  0
  9  1  1  0  0  0
  1  2  2  0  0  0
  1  8  1  0  0  0
  2  3  1  0  0  0
  3  4  2  0  0  0
  4  5  1  0  0  0
  4  6  1  0  0  0
  6  7  1  0  0  0
  6  8  2  0  0  0
M  END
> <minimizedAffinity>
-6.10118

$$$$
../data/sim29_sdf/CHEMBL164989.pdb


 11 11  0  0  0  0  0  0  0  0999 V2000
   69.8116   49.7601   51.3162 N   0  0  0  0  0  0  0  0  0  0  0  0
   69.4882   49.0055   52.4636 C   0  0  0  0  0  0  0  0  0  0  0  0
   69.3178   49.6063   53.6991 C   0  0  0  0  0  0  0  0  0  0  0  0
   69.0012   48.9048   54.8418 C   0  0  0  0  0  0  0  0  0  0  0  0
   68.8352   47.5305   54.8092 C   0  0  0  0  0  0  0  0  0  0  0  0
   69.0045   46.9182   53.5722 C   0  0  0  0  0  0  0  0  0  0  0  0
   69.3207   47.6247   52.4302 C   0  0  0  0  0  0  0  0  0  0  0  0
   69.4890   47.0119   51.1972 O   0  0  0  0  0  0  0  0  0  0  0  0
   68.5118   46.7963   55.9681 N   0  0  0  0  0  0  0  0  0  0  0  0
   68.2003   47.3846   57.0033 O   0  0  0  0  0  0  0  0  0  0  0  0
   68.5455   45.4389   55.9388 O   0  0  0  0  0  0  0  0  0  0  0  0
  1  2  1  0  0  0
  2  3  2  0  0  0
  2  7  1  0  0  0
  3  4  1  0  0  0
  4  5  2  0  0  0
  5  9  1  0  0  0
  5  6  1  0  0  0
  9 10  2  0  0  0
  9 11  1  0  0  0
  6  7  2  0  0  0
  7  8  1  0  0  0
M  CHG 1   9   1
M  CHG 1  11  -1
M  END
> <minimizedAffinity>
-5.94872

$$$$
../data/sim29_sdf/CHEMBL2311152.pdb


 12 12  0  0  0  0  0  0  0  0999 V2000
   69.3483   48.0032   53.2718 C   0  0  0  0  0  0  0  0  0  0  0  0
   68.8592   46.9814   52.4781 C   0  0  0  0  0  0  0  0  0  0  0  0
   68.3143   45.8363   53.0279 C   0  0  0  0  0  0  0  0  0  0  0  0
   68.2302   45.6557   54.3909 C   0  0  0  0  0  0  0  0  0  0  0  0
   67.6780   44.4973   54.9492 O   0  0  0  0  0  0  0  0  0  0  0  0
   68.7155   46.6685   55.1898 C   0  0  0  0  0  0  0  0  0  0  0  0
   68.6209   46.4674   56.5678 O   0  0  0  0  0  0  0  0  0  0  0  0
   69.2586   47.8088   54.6352 C   0  0  0  0  0  0  0  0  0  0  0  0
   69.9325   49.2286   52.6700 C   0  0  0  0  0  0  0  0  0  0  0  0
   69.7716   49.2761   51.2870 O   0  0  0  0  0  0  0  0  0  0  0  0
   69.4117   50.4850   53.3278 C   0  0  0  0  0  0  0  0  0  0  0  0
   70.4877   51.4074   53.6362 N   0  0  0  0  0  0  0  0  0  0  0  0
  9 10  1  0  0  0
  9 11  1  0  0  0
  9  1  1  0  0  0
 11 12  1  0  0  0
  1  2  2  0  0  0
  1  8  1  0  0  0
  2  3  1  0  0  0
  3  4  2  0  0  0
  4  5  1  0  0  0
  4  6  1  0  0  0
  6  7  1  0  0  0
  6  8  2  0  0  0
M  CHG 1  12   1
M  END
> <minimizedAffinity>
-5.98245

$$$$
../data/sim29_sdf/CHEMBL2311152.pdb


 12 12  0  0  0  0  0  0  0  0999 V2000
   69.3566   47.9995   53.3613 C   0  0  0  0  0  0  0  0  0  0  0  0
   68.8541   47.0104   52.5400 C   0  0  0  0  0  0  0  0  0  0  0  0
   68.2991   45.8475   53.0539 C   0  0  0  0  0  0  0  0  0  0  0  0
   68.2238   45.6268   54.4103 C   0  0  0  0  0  0  0  0  0  0  0  0
   67.6674   44.4601   54.9401 O   0  0  0  0  0  0  0  0  0  0  0  0
   68.7198   46.6034   55.2421 C   0  0  0  0  0  0  0  0  0  0  0  0
   68.6563   46.4080   56.6149 O   0  0  0  0  0  0  0  0  0  0  0  0
   69.2788   47.7745   54.7189 C   0  0  0  0  0  0  0  0  0  0  0  0
   69.9478   49.2405   52.7985 C   0  0  0  0  0  0  0  0  0  0  0  0
   69.7479   49.2690   51.4124 O   0  0  0  0  0  0  0  0  0  0  0  0
   69.3056   50.4790   53.3846 C   0  0  0  0  0  0  0  0  0  0  0  0
   70.2973   51.5663   53.3802 N   0  0  0  0  0  0  0  0  0  0  0  0
  9 10  1  0  0  0
  9 11  1  0  0  0
  9  1  1  0  0  0
 11 12  1  0  0  0
  1  2  2  0  0  0
  1  8  1  0  0  0
  2  3  1  0  0  0
  3  4  2  0  0  0
  4  5  1  0  0  0
  4  6  1  0  0  0
  6  7  1  0  0  0
  6  8  2  0  0  0
M  CHG 1  12   1
M  END
> <minimizedAffinity>
-5.98137

$$$$
../data/sim29_sdf/CHEMBL1160982.pdb


 13 13  0  0  0  0  0  0  0  0999 V2000
   68.7839   47.9658   55.3665 C   0  0  0  0  0  0  0  0  0  0  0  0
   68.1264   46.9464   54.7246 C   0  0  0  0  0  0  0  0  0  0  0  0
   68.3730   46.6341   53.4054 C   0  0  0  0  0  0  0  0  0  0  0  0
   69.3278   47.3893   52.7079 C   0  0  0  0  0  0  0  0  0  0  0  0
   69.5474   47.0432   51.3802 O   0  0  0  0  0  0  0  0  0  0  0  0
   69.9976   48.4140   53.3298 C   0  0  0  0  0  0  0  0  0  0  0  0
   70.9394   49.1569   52.6377 O   0  0  0  0  0  0  0  0  0  0  0  0
   69.7154   48.6923   54.6615 C   0  0  0  0  0  0  0  0  0  0  0  0
   68.5233   48.2897   56.7495 C   0  0  0  0  0  0  0  0  0  0  0  0
   67.2544   47.8233   57.0914 O   0  0  0  0  0  0  0  0  0  0  0  0
   67.3864   50.2398   57.7002 C   0  0  0  0  0  0  0  0  0  0  0  0
   68.7121   49.7117   57.1500 C   0  0  0  0  0  0  0  0  0  0  0  0
   69.6863   49.8148   58.2241 N   0  0  0  0  0  0  0  0  0  0  0  0
 12 11  1  0  0  0
 12 13  1  0  0  0
 12  9  1  0  0  0
  9 10  1  0  0  0
  9  1  1  0  0  0
  1  2  2  0  0  0
  1  8  1  0  0  0
  2  3  1  0  0  0
  3  4  2  0  0  0
  4  5  1  0  0  0
  4  6  1  0  0  0
  6  7  1  0  0  0
  6  8  2  0  0  0
M  CHG 1  13   1
M  END
> <minimizedAffinity>
-6.24523

$$$$
../data/sim29_sdf/CHEMBL1350643.pdb


 17 18  0  0  0  0  0  0  0  0999 V2000
   68.9031   50.7589   55.7664 C   0  0  0  0  0  0  0  0  0  0  0  0
   73.5225   53.8001   56.9387 N   0  0  0  0  0  0  0  0  0  0  0  0
   72.3840   53.0104   56.6549 C   0  0  0  0  0  0  0  0  0  0  0  0
   71.2507   53.6438   56.1769 C   0  0  0  0  0  0  0  0  0  0  0  0
   70.1029   52.8965   55.8849 C   0  0  0  0  0  0  0  0  0  0  0  0
   70.0968   51.5332   56.0707 C   0  0  0  0  0  0  0  0  0  0  0  0
   71.2394   50.9288   56.5479 C   0  0  0  0  0  0  0  0  0  0  0  0
   72.3734   51.6523   56.8388 C   0  0  0  0  0  0  0  0  0  0  0  0
   73.4922   51.0133   57.3129 O   0  0  0  0  0  0  0  0  0  0  0  0
   69.0838   49.7688   54.6896 C   0  0  0  0  0  0  0  0  0  0  0  0
   69.0369   48.4103   54.8588 C   0  0  0  0  0  0  0  0  0  0  0  0
   69.2168   47.5515   53.7917 C   0  0  0  0  0  0  0  0  0  0  0  0
   69.4501   48.0377   52.5215 C   0  0  0  0  0  0  0  0  0  0  0  0
   69.6314   47.1319   51.4490 N   0  0  0  0  0  0  0  0  0  0  0  0
   69.5011   49.3897   52.3309 C   0  0  0  0  0  0  0  0  0  0  0  0
   69.7383   49.8921   51.0406 O   0  0  0  0  0  0  0  0  0  0  0  0
   69.3180   50.2422   53.4150 C   0  0  0  0  0  0  0  0  0  0  0  0
  2  3  1  0  0  0
  3  4  2  0  0  0
  3  8  1  0  0  0
  4  5  1  0  0  0
  5  6  2  0  0  0
  6  1  1  0  0  0
  6  7  1  0  0  0
  1 10  1  0  0  0
 10 11  2  0  0  0
 10 17  1  0  0  0
 11 12  1  0  0  0
 12 13  2  0  0  0
 13 14  1  0  0  0
 13 15  1  0  0  0
 15 16  1  0  0  0
 15 17  2  0  0  0
  7  8  2  0  0  0
  8  9  1  0  0  0
M  END
> <minimizedAffinity>
-7.17939

$$$$
../data/sim29_sdf/CHEMBL1350643.pdb


 17 18  0  0  0  0  0  0  0  0999 V2000
   68.8565   50.7919   55.7252 C   0  0  0  0  0  0  0  0  0  0  0  0
   73.5543   53.7157   57.0461 N   0  0  0  0  0  0  0  0  0  0  0  0
   72.3791   52.9863   56.7162 C   0  0  0  0  0  0  0  0  0  0  0  0
   71.2659   53.6238   56.1712 C   0  0  0  0  0  0  0  0  0  0  0  0
   70.1478   52.8732   55.8662 C   0  0  0  0  0  0  0  0  0  0  0  0
   70.0857   51.5124   56.0791 C   0  0  0  0  0  0  0  0  0  0  0  0
   71.1969   50.8895   56.6198 C   0  0  0  0  0  0  0  0  0  0  0  0
   72.3263   51.6251   56.9320 C   0  0  0  0  0  0  0  0  0  0  0  0
   73.4399   50.9703   57.4788 O   0  0  0  0  0  0  0  0  0  0  0  0
   69.0580   49.7728   54.6765 C   0  0  0  0  0  0  0  0  0  0  0  0
   69.0132   48.4148   54.9180 C   0  0  0  0  0  0  0  0  0  0  0  0
   69.2156   47.5492   53.8683 C   0  0  0  0  0  0  0  0  0  0  0  0
   69.4592   47.9900   52.5866 C   0  0  0  0  0  0  0  0  0  0  0  0
   69.6686   47.1188   51.4959 N   0  0  0  0  0  0  0  0  0  0  0  0
   69.5065   49.3587   52.3293 C   0  0  0  0  0  0  0  0  0  0  0  0
   69.7534   49.8311   51.0317 O   0  0  0  0  0  0  0  0  0  0  0  0
   69.3017   50.2096   53.3940 C   0  0  0  0  0  0  0  0  0  0  0  0
  2  3  1  0  0  0
  3  4  2  0  0  0
  3  8  1  0  0  0
  4  5  1  0  0  0
  5  6  2  0  0  0
  6  1  1  0  0  0
  6  7  1  0  0  0
  1 10  1  0  0  0
 10 11  2  0  0  0
 10 17  1  0  0  0
 11 12  1  0  0  0
 12 13  2  0  0  0
 13 14  1  0  0  0
 13 15  1  0  0  0
 15 16  1  0  0  0
 15 17  2  0  0  0
  7  8  2  0  0  0
  8  9  1  0  0  0
M  END
> <minimizedAffinity>
-7.17054

$$$$
../data/sim29_sdf/CHEMBL1350643.pdb


 17 18  0  0  0  0  0  0  0  0999 V2000
   68.8548   49.7401   56.2128 C   0  0  0  0  0  0  0  0  0  0  0  0
   73.7610   51.9196   57.8723 N   0  0  0  0  0  0  0  0  0  0  0  0
   72.5274   51.3453   57.4540 C   0  0  0  0  0  0  0  0  0  0  0  0
   72.4052   49.9712   57.3986 C   0  0  0  0  0  0  0  0  0  0  0  0
   71.1941   49.4615   56.9895 C   0  0  0  0  0  0  0  0  0  0  0  0
   70.1590   50.3295   56.6539 C   0  0  0  0  0  0  0  0  0  0  0  0
   70.3076   51.6858   56.7185 C   0  0  0  0  0  0  0  0  0  0  0  0
   71.5120   52.2100   57.1262 C   0  0  0  0  0  0  0  0  0  0  0  0
   71.6537   53.5883   57.1882 O   0  0  0  0  0  0  0  0  0  0  0  0
   69.0200   49.0638   54.9016 C   0  0  0  0  0  0  0  0  0  0  0  0
   68.8080   47.7018   54.8552 C   0  0  0  0  0  0  0  0  0  0  0  0
   68.9507   47.0165   53.6447 C   0  0  0  0  0  0  0  0  0  0  0  0
   69.3044   47.6944   52.4959 C   0  0  0  0  0  0  0  0  0  0  0  0
   69.4512   46.9985   51.2570 N   0  0  0  0  0  0  0  0  0  0  0  0
   69.5174   49.0594   52.5421 C   0  0  0  0  0  0  0  0  0  0  0  0
   69.8714   49.7002   51.3606 O   0  0  0  0  0  0  0  0  0  0  0  0
   69.3689   49.7043   53.7458 C   0  0  0  0  0  0  0  0  0  0  0  0
  2  3  1  0  0  0
  3  4  2  0  0  0
  3  8  1  0  0  0
  4  5  1  0  0  0
  5  6  2  0  0  0
  6  1  1  0  0  0
  6  7  1  0  0  0
  1 10  1  0  0  0
 10 11  2  0  0  0
 10 17  1  0  0  0
 11 12  1  0  0  0
 12 13  2  0  0  0
 13 14  1  0  0  0
 13 15  1  0  0  0
 15 16  1  0  0  0
 15 17  2  0  0  0
  7  8  2  0  0  0
  8  9  1  0  0  0
M  END
> <minimizedAffinity>
-6.98606

$$$$
../data/sim29_sdf/CHEMBL1612659.pdb


 13 13  0  0  0  0  0  0  0  0999 V2000
   69.1041   49.7709   54.6837 C   0  0  0  0  0  0  0  0  0  0  0  0
   69.0399   48.4092   54.8674 C   0  0  0  0  0  0  0  0  0  0  0  0
   69.2069   47.5101   53.8257 C   0  0  0  0  0  0  0  0  0  0  0  0
   69.4447   47.9920   52.5541 C   0  0  0  0  0  0  0  0  0  0  0  0
   69.6205   47.1440   51.4661 O   0  0  0  0  0  0  0  0  0  0  0  0
   69.5135   49.3562   52.3427 C   0  0  0  0  0  0  0  0  0  0  0  0
   69.7516   49.8458   51.0720 O   0  0  0  0  0  0  0  0  0  0  0  0
   69.3423   50.2206   53.4063 C   0  0  0  0  0  0  0  0  0  0  0  0
   68.9197   50.6653   55.8227 C   0  0  0  0  0  0  0  0  0  0  0  0
   68.2369   51.7982   55.4028 O   0  0  0  0  0  0  0  0  0  0  0  0
   67.0672   50.7940   57.5086 C   0  0  0  0  0  0  0  0  0  0  0  0
   68.2568   50.0234   57.0127 C   0  0  0  0  0  0  0  0  0  0  0  0
   69.2385   49.9890   58.0879 N   0  0  0  0  0  0  0  0  0  0  0  0
 12 11  1  0  0  0
 12 13  1  0  0  0
 12  9  1  0  0  0
  9 10  1  0  0  0
  9  1  1  0  0  0
  1  2  2  0  0  0
  1  8  1  0  0  0
  2  3  1  0  0  0
  3  4  2  0  0  0
  4  5  1  0  0  0
  4  6  1  0  0  0
  6  7  1  0  0  0
  6  8  2  0  0  0
M  CHG 1  13   1
M  END
> <minimizedAffinity>
-6.22659

$$$$
../data/sim29_sdf/CHEMBL1462.pdb


 11 11  0  0  0  0  0  0  0  0999 V2000
   69.8032   49.7575   51.2961 N   0  0  0  0  0  0  0  0  0  0  0  0
   69.4804   49.0341   52.4730 C   0  0  0  0  0  0  0  0  0  0  0  0
   69.2933   49.7255   53.6743 C   0  0  0  0  0  0  0  0  0  0  0  0
   68.9785   48.9699   54.7952 C   0  0  0  0  0  0  0  0  0  0  0  0
   68.8547   47.6021   54.7387 C   0  0  0  0  0  0  0  0  0  0  0  0
   69.0380   46.9258   53.5549 C   0  0  0  0  0  0  0  0  0  0  0  0
   69.3562   47.6608   52.4083 C   0  0  0  0  0  0  0  0  0  0  0  0
   69.5567   47.0481   51.1788 O   0  0  0  0  0  0  0  0  0  0  0  0
   68.5206   46.8459   55.9493 C   0  0  0  0  0  0  0  0  0  0  0  0
   68.1292   47.4394   56.9842 O   0  0  0  0  0  0  0  0  0  0  0  0
   68.6172   45.4693   56.0113 O   0  0  0  0  0  0  0  0  0  0  0  0
  1  2  1  0  0  0
  2  3  2  0  0  0
  2  7  1  0  0  0
  3  4  1  0  0  0
  4  5  2  0  0  0
  5  9  1  0  0  0
  5  6  1  0  0  0
  9 10  2  0  0  0
  9 11  1  0  0  0
  6  7  2  0  0  0
  7  8  1  0  0  0
M  END
> <minimizedAffinity>
-6.13204

$$$$
../data/sim29_sdf/CHEMBL3273169.pdb


 12 12  0  0  0  0  0  0  0  0999 V2000
   68.9431   47.6806   54.8063 C   0  0  0  0  0  0  0  0  0  0  0  0
   69.1258   49.0471   54.7344 C   0  0  0  0  0  0  0  0  0  0  0  0
   69.4140   49.7203   53.5879 C   0  0  0  0  0  0  0  0  0  0  0  0
   69.5397   49.0193   52.3972 C   0  0  0  0  0  0  0  0  0  0  0  0
   69.8311   49.7144   51.2524 O   0  0  0  0  0  0  0  0  0  0  0  0
   69.3639   47.6471   52.4304 C   0  0  0  0  0  0  0  0  0  0  0  0
   69.4782   46.9083   51.2756 O   0  0  0  0  0  0  0  0  0  0  0  0
   69.0679   46.9819   53.6242 C   0  0  0  0  0  0  0  0  0  0  0  0
   68.6357   47.0962   56.0978 C   0  0  0  0  0  0  0  0  0  0  0  0
   68.5799   45.6931   55.9194 O   0  0  0  0  0  0  0  0  0  0  0  0
   69.9351   46.4362   58.0835 N   0  0  0  0  0  0  0  0  0  0  0  0
   69.4777   47.4791   57.2457 C   0  0  0  0  0  0  0  0  0  0  0  0
 11 12  1  0  0  0
 12  9  1  0  0  0
  9 10  1  0  0  0
  9  1  1  0  0  0
  1  2  2  0  0  0
  1  8  1  0  0  0
  2  3  1  0  0  0
  3  4  2  0  0  0
  4  5  1  0  0  0
  4  6  1  0  0  0
  6  7  1  0  0  0
  6  8  2  0  0  0
M  CHG 1  11   1
M  END
> <minimizedAffinity>
-5.97661

$$$$
../data/sim29_sdf/CHEMBL3273169.pdb


 12 12  0  0  0  0  0  0  0  0999 V2000
   68.8847   47.9525   54.8635 C   0  0  0  0  0  0  0  0  0  0  0  0
   69.0506   49.3070   54.7292 C   0  0  0  0  0  0  0  0  0  0  0  0
   69.3718   49.8819   53.4933 C   0  0  0  0  0  0  0  0  0  0  0  0
   69.5335   49.1113   52.3715 C   0  0  0  0  0  0  0  0  0  0  0  0
   69.8566   49.6733   51.1246 O   0  0  0  0  0  0  0  0  0  0  0  0
   69.3688   47.7489   52.4977 C   0  0  0  0  0  0  0  0  0  0  0  0
   69.5256   46.9192   51.3711 O   0  0  0  0  0  0  0  0  0  0  0  0
   69.0539   47.1837   53.7082 C   0  0  0  0  0  0  0  0  0  0  0  0
   68.5426   47.2518   56.1176 C   0  0  0  0  0  0  0  0  0  0  0  0
   68.5104   45.8612   55.8310 O   0  0  0  0  0  0  0  0  0  0  0  0
   69.9446   46.2959   57.9256 N   0  0  0  0  0  0  0  0  0  0  0  0
   69.4466   47.4532   57.2643 C   0  0  0  0  0  0  0  0  0  0  0  0
 11 12  1  0  0  0
 12  9  1  0  0  0
  9 10  1  0  0  0
  9  1  1  0  0  0
  1  2  2  0  0  0
  1  8  1  0  0  0
  2  3  1  0  0  0
  3  4  2  0  0  0
  4  5  1  0  0  0
  4  6  1  0  0  0
  6  7  1  0  0  0
  6  8  2  0  0  0
M  CHG 1  11   1
M  END
> <minimizedAffinity>
-5.94295

$$$$
../data/sim29_sdf/CHEMBL1437.pdb


 12 12  0  0  0  0  0  0  0  0999 V2000
   69.4042   47.9796   53.5734 C   0  0  0  0  0  0  0  0  0  0  0  0
   69.0858   47.8476   52.2389 C   0  0  0  0  0  0  0  0  0  0  0  0
   68.3393   46.7865   51.7868 C   0  0  0  0  0  0  0  0  0  0  0  0
   67.8737   45.8011   52.6553 C   0  0  0  0  0  0  0  0  0  0  0  0
   67.1184   44.7285   52.1899 O   0  0  0  0  0  0  0  0  0  0  0  0
   68.2102   45.9617   53.9847 C   0  0  0  0  0  0  0  0  0  0  0  0
   67.7636   44.9989   54.8796 O   0  0  0  0  0  0  0  0  0  0  0  0
   68.9554   47.0193   54.4470 C   0  0  0  0  0  0  0  0  0  0  0  0
   70.2125   49.1408   54.0184 C   0  0  0  0  0  0  0  0  0  0  0  0
   71.2950   49.2481   53.1277 O   0  0  0  0  0  0  0  0  0  0  0  0
   70.0837   51.3885   53.1163 N   0  0  0  0  0  0  0  0  0  0  0  0
   69.3487   50.3733   53.8444 C   0  0  0  0  0  0  0  0  0  0  0  0
 11 12  1  0  0  0
 12  9  1  0  0  0
  9 10  1  0  0  0
  9  1  1  0  0  0
  1  2  2  0  0  0
  1  8  1  0  0  0
  2  3  1  0  0  0
  3  4  2  0  0  0
  4  5  1  0  0  0
  4  6  1  0  0  0
  6  7  1  0  0  0
  6  8  2  0  0  0
M  CHG 1  11   1
M  END
> <minimizedAffinity>
-5.95806

$$$$
../data/sim29_sdf/CHEMBL270197.pdb


  9  9  0  0  0  0  0  0  0  0999 V2000
   70.5795   49.2021   53.8698 N   0  0  0  0  0  0  0  0  0  0  0  0
   69.6751   48.1700   53.4992 C   0  0  0  0  0  0  0  0  0  0  0  0
   68.8660   47.5375   54.4164 C   0  0  0  0  0  0  0  0  0  0  0  0
   67.9943   46.5379   54.0390 C   0  0  0  0  0  0  0  0  0  0  0  0
   67.9556   46.1880   52.7067 C   0  0  0  0  0  0  0  0  0  0  0  0
   67.0723   45.1734   52.3200 O   0  0  0  0  0  0  0  0  0  0  0  0
   68.7425   46.7887   51.7500 C   0  0  0  0  0  0  0  0  0  0  0  0
   69.6055   47.7852   52.1530 C   0  0  0  0  0  0  0  0  0  0  0  0
   70.4218   48.4212   51.2161 O   0  0  0  0  0  0  0  0  0  0  0  0
  1  2  1  0  0  0
  2  3  2  0  0  0
  2  8  1  0  0  0
  3  4  1  0  0  0
  4  5  2  0  0  0
  5  6  1  0  0  0
  5  7  1  0  0  0
  7  8  2  0  0  0
  8  9  1  0  0  0
M  END
> <minimizedAffinity>
-5.48380

$$$$
../data/sim29_sdf/CHEMBL3248963.pdb


 12 12  0  0  0  0  0  0  0  0999 V2000
   69.3217   48.0311   53.2656 C   0  0  0  0  0  0  0  0  0  0  0  0
   68.8675   47.0535   52.4154 C   0  0  0  0  0  0  0  0  0  0  0  0
   68.3140   45.8810   52.9387 C   0  0  0  0  0  0  0  0  0  0  0  0
   68.2279   45.7169   54.3103 C   0  0  0  0  0  0  0  0  0  0  0  0
   67.6826   44.5628   54.8546 O   0  0  0  0  0  0  0  0  0  0  0  0
   68.6823   46.6954   55.1738 C   0  0  0  0  0  0  0  0  0  0  0  0
   68.5847   46.5049   56.5434 O   0  0  0  0  0  0  0  0  0  0  0  0
   69.2303   47.8540   54.6220 C   0  0  0  0  0  0  0  0  0  0  0  0
   69.9068   49.2720   52.7178 C   0  0  0  0  0  0  0  0  0  0  0  0
   69.7265   49.3548   51.3341 O   0  0  0  0  0  0  0  0  0  0  0  0
   70.3175   51.5815   53.4421 N   0  0  0  0  0  0  0  0  0  0  0  0
   69.3619   50.5171   53.3862 C   0  0  0  0  0  0  0  0  0  0  0  0
 11 12  1  0  0  0
 12  9  1  0  0  0
  9 10  1  0  0  0
  9  1  1  0  0  0
  1  2  2  0  0  0
  1  8  1  0  0  0
  2  3  1  0  0  0
  3  4  2  0  0  0
  4  5  1  0  0  0
  4  6  1  0  0  0
  6  7  1  0  0  0
  6  8  2  0  0  0
M  CHG 1  11   1
M  END
> <minimizedAffinity>
-6.03866

$$$$
../data/sim29_sdf/CHEMBL14927.pdb


 22 23  0  0  0  0  0  0  0  0999 V2000
   69.1876   48.7651   56.3814 C   0  0  0  0  0  0  0  0  0  0  0  0
   69.1267   48.2637   54.9633 C   0  0  0  0  0  0  0  0  0  0  0  0
   68.5711   47.0418   54.7021 C   0  0  0  0  0  0  0  0  0  0  0  0
   68.5022   46.5525   53.3923 C   0  0  0  0  0  0  0  0  0  0  0  0
   68.9950   47.3001   52.3635 C   0  0  0  0  0  0  0  0  0  0  0  0
   68.9353   46.8231   51.0381 O   0  0  0  0  0  0  0  0  0  0  0  0
   69.5546   48.5323   52.6351 C   0  0  0  0  0  0  0  0  0  0  0  0
   70.0573   49.2832   51.5404 N   0  0  0  0  0  0  0  0  0  0  0  0
   69.6219   49.0193   53.9464 C   0  0  0  0  0  0  0  0  0  0  0  0
   67.2497   49.5031   57.7627 C   0  0  0  0  0  0  0  0  0  0  0  0
   67.9088   48.3136   57.0213 C   0  0  0  0  0  0  0  0  0  0  0  0
   70.4587   48.3616   57.0153 C   0  0  0  0  0  0  0  0  0  0  0  0
   71.3244   49.5446   57.3390 C   0  0  0  0  0  0  0  0  0  0  0  0
   70.7631   50.7406   57.7054 C   0  0  0  0  0  0  0  0  0  0  0  0
   71.5872   51.8377   58.0054 C   0  0  0  0  0  0  0  0  0  0  0  0
   72.9736   51.7081   57.9299 C   0  0  0  0  0  0  0  0  0  0  0  0
   73.8103   52.7733   58.2204 O   0  0  0  0  0  0  0  0  0  0  0  0
   73.5270   50.5053   57.5618 C   0  0  0  0  0  0  0  0  0  0  0  0
   74.9424   50.3482   57.4781 N   0  0  0  0  0  0  0  0  0  0  0  0
   72.6860   49.4520   57.2755 C   0  0  0  0  0  0  0  0  0  0  0  0
   70.4165   47.4082   58.1575 C   0  0  0  0  0  0  0  0  0  0  0  0
   70.6775   45.9699   57.8867 C   0  0  0  0  0  0  0  0  0  0  0  0
 10 11  1  0  0  0
  1 11  1  0  0  0
  1  2  1  0  0  0
  1 12  1  0  0  0
  2  3  2  0  0  0
  2  9  1  0  0  0
  3  4  1  0  0  0
  4  5  2  0  0  0
  5  6  1  0  0  0
  5  7  1  0  0  0
  7  8  1  0  0  0
  7  9  2  0  0  0
 12 21  1  0  0  0
 12 13  1  0  0  0
 21 22  1  0  0  0
 13 14  2  0  0  0
 13 20  1  0  0  0
 14 15  1  0  0  0
 15 16  2  0  0  0
 16 17  1  0  0  0
 16 18  1  0  0  0
 18 19  1  0  0  0
 18 20  2  0  0  0
M  END
> <minimizedAffinity>
-7.67888

$$$$
../data/sim29_sdf/CHEMBL14927.pdb


 22 23  0  0  0  0  0  0  0  0999 V2000
   69.5222   49.8175   56.9164 C   0  0  0  0  0  0  0  0  0  0  0  0
   70.5831   50.7991   56.7447 C   0  0  0  0  0  0  0  0  0  0  0  0
   70.3593   52.0973   56.4211 C   0  0  0  0  0  0  0  0  0  0  0  0
   71.4571   52.9617   56.2618 C   0  0  0  0  0  0  0  0  0  0  0  0
   72.7583   52.5516   56.4212 C   0  0  0  0  0  0  0  0  0  0  0  0
   73.8401   53.4298   56.2578 O   0  0  0  0  0  0  0  0  0  0  0  0
   72.9499   51.2262   56.7518 C   0  0  0  0  0  0  0  0  0  0  0  0
   74.2920   50.7871   56.9204 N   0  0  0  0  0  0  0  0  0  0  0  0
   71.8869   50.3638   56.9111 C   0  0  0  0  0  0  0  0  0  0  0  0
   67.1794   50.4081   57.7550 C   0  0  0  0  0  0  0  0  0  0  0  0
   68.1288   50.1898   56.6540 C   0  0  0  0  0  0  0  0  0  0  0  0
   69.9097   48.4241   56.4554 C   0  0  0  0  0  0  0  0  0  0  0  0
   69.5308   48.0666   55.0917 C   0  0  0  0  0  0  0  0  0  0  0  0
   68.6426   47.0101   54.8425 C   0  0  0  0  0  0  0  0  0  0  0  0
   68.2491   46.6576   53.5908 C   0  0  0  0  0  0  0  0  0  0  0  0
   68.7192   47.3404   52.4897 C   0  0  0  0  0  0  0  0  0  0  0  0
   68.3170   46.9802   51.1974 O   0  0  0  0  0  0  0  0  0  0  0  0
   69.5955   48.3881   52.6800 C   0  0  0  0  0  0  0  0  0  0  0  0
   70.0825   49.0925   51.5433 N   0  0  0  0  0  0  0  0  0  0  0  0
   69.9766   48.7236   53.9557 C   0  0  0  0  0  0  0  0  0  0  0  0
   69.4080   47.3494   57.3743 C   0  0  0  0  0  0  0  0  0  0  0  0
   70.5266   46.7557   58.2329 C   0  0  0  0  0  0  0  0  0  0  0  0
 10 11  1  0  0  0
  1 11  1  0  0  0
  1  2  1  0  0  0
  1 12  1  0  0  0
  2  3  2  0  0  0
  2  9  1  0  0  0
  3  4  1  0  0  0
  4  5  2  0  0  0
  5  6  1  0  0  0
  5  7  1  0  0  0
  7  8  1  0  0  0
  7  9  2  0  0  0
 12 21  1  0  0  0
 12 13  1  0  0  0
 21 22  1  0  0  0
 13 14  2  0  0  0
 13 20  1  0  0  0
 14 15  1  0  0  0
 15 16  2  0  0  0
 16 17  1  0  0  0
 16 18  1  0  0  0
 18 19  1  0  0  0
 18 20  2  0  0  0
M  END
> <minimizedAffinity>
-7.62165

$$$$
../data/sim29_sdf/CHEMBL14927.pdb


 22 23  0  0  0  0  0  0  0  0999 V2000
   69.5211   50.1339   56.1610 C   0  0  0  0  0  0  0  0  0  0  0  0
   69.3894   49.1879   55.0678 C   0  0  0  0  0  0  0  0  0  0  0  0
   68.7795   47.9572   55.3087 C   0  0  0  0  0  0  0  0  0  0  0  0
   68.6258   47.0325   54.2970 C   0  0  0  0  0  0  0  0  0  0  0  0
   69.0626   47.2744   53.0111 C   0  0  0  0  0  0  0  0  0  0  0  0
   68.9286   46.3758   51.9680 O   0  0  0  0  0  0  0  0  0  0  0  0
   69.6681   48.4842   52.7487 C   0  0  0  0  0  0  0  0  0  0  0  0
   70.1483   48.8067   51.4320 N   0  0  0  0  0  0  0  0  0  0  0  0
   69.8117   49.3932   53.7740 C   0  0  0  0  0  0  0  0  0  0  0  0
   67.4636   50.9324   57.2730 C   0  0  0  0  0  0  0  0  0  0  0  0
   68.4766   49.8449   57.2071 C   0  0  0  0  0  0  0  0  0  0  0  0
   70.8989   50.2637   56.7349 C   0  0  0  0  0  0  0  0  0  0  0  0
   71.5532   51.5270   56.3080 C   0  0  0  0  0  0  0  0  0  0  0  0
   71.4040   52.7107   57.0216 C   0  0  0  0  0  0  0  0  0  0  0  0
   71.9974   53.8895   56.6486 C   0  0  0  0  0  0  0  0  0  0  0  0
   72.7853   53.9317   55.5153 C   0  0  0  0  0  0  0  0  0  0  0  0
   73.3831   55.1457   55.1502 O   0  0  0  0  0  0  0  0  0  0  0  0
   72.9564   52.7887   54.7866 C   0  0  0  0  0  0  0  0  0  0  0  0
   73.7786   52.8605   53.6146 N   0  0  0  0  0  0  0  0  0  0  0  0
   72.3516   51.6065   55.1750 C   0  0  0  0  0  0  0  0  0  0  0  0
   70.8028   50.2725   58.2503 C   0  0  0  0  0  0  0  0  0  0  0  0
   71.9731   49.4813   58.8534 C   0  0  0  0  0  0  0  0  0  0  0  0
 10 11  1  0  0  0
  1 11  1  0  0  0
  1  2  1  0  0  0
  1 12  1  0  0  0
  2  3  2  0  0  0
  2  9  1  0  0  0
  3  4  1  0  0  0
  4  5  2  0  0  0
  5  6  1  0  0  0
  5  7  1  0  0  0
  7  8  1  0  0  0
  7  9  2  0  0  0
 12 21  1  0  0  0
 12 13  1  0  0  0
 21 22  1  0  0  0
 13 14  2  0  0  0
 13 20  1  0  0  0
 14 15  1  0  0  0
 15 16  2  0  0  0
 16 17  1  0  0  0
 16 18  1  0  0  0
 18 19  1  0  0  0
 18 20  2  0  0  0
M  END
> <minimizedAffinity>
-7.72317

$$$$
../data/sim29_sdf/CHEMBL1256471.pdb


 13 13  0  0  0  0  0  0  0  0999 V2000
   69.3718   47.9962   53.4813 C   0  0  0  0  0  0  0  0  0  0  0  0
   69.0156   47.8193   52.1631 C   0  0  0  0  0  0  0  0  0  0  0  0
   68.2677   46.7292   51.7497 C   0  0  0  0  0  0  0  0  0  0  0  0
   67.8657   45.7892   52.6869 C   0  0  0  0  0  0  0  0  0  0  0  0
   67.1274   44.7229   52.2450 O   0  0  0  0  0  0  0  0  0  0  0  0
   68.2043   45.9339   54.0161 C   0  0  0  0  0  0  0  0  0  0  0  0
   67.8128   45.0077   54.9645 O   0  0  0  0  0  0  0  0  0  0  0  0
   68.9494   47.0334   54.3847 C   0  0  0  0  0  0  0  0  0  0  0  0
   70.1710   49.1736   53.8858 C   0  0  0  0  0  0  0  0  0  0  0  0
   71.3380   49.2228   53.1616 O   0  0  0  0  0  0  0  0  0  0  0  0
   68.8542   50.8877   55.1386 C   0  0  0  0  0  0  0  0  0  0  0  0
   69.3852   50.4571   53.8087 C   0  0  0  0  0  0  0  0  0  0  0  0
   70.1794   51.4940   53.2055 N   0  0  0  0  0  0  0  0  0  0  0  0
 12 11  1  0  0  0
 12 13  1  0  0  0
 12  9  1  0  0  0
  9 10  1  0  0  0
  9  1  1  0  0  0
  1  2  2  0  0  0
  1  8  1  0  0  0
  2  3  1  0  0  0
  3  4  2  0  0  0
  4  5  1  0  0  0
  4  6  1  0  0  0
  6  7  1  0  0  0
  6  8  2  0  0  0
M  CHG 1  13   1
M  END
> <minimizedAffinity>
-6.36523

$$$$
../data/sim29_sdf/CHEMBL1256471.pdb


 13 13  0  0  0  0  0  0  0  0999 V2000
   69.3529   47.9829   53.4857 C   0  0  0  0  0  0  0  0  0  0  0  0
   68.9778   47.7856   52.1753 C   0  0  0  0  0  0  0  0  0  0  0  0
   68.2430   46.6969   51.7657 C   0  0  0  0  0  0  0  0  0  0  0  0
   67.8396   45.7263   52.6791 C   0  0  0  0  0  0  0  0  0  0  0  0
   67.0999   44.6457   52.2174 O   0  0  0  0  0  0  0  0  0  0  0  0
   68.2022   45.9022   53.9942 C   0  0  0  0  0  0  0  0  0  0  0  0
   67.8223   44.9573   54.9493 O   0  0  0  0  0  0  0  0  0  0  0  0
   68.9506   47.0200   54.3809 C   0  0  0  0  0  0  0  0  0  0  0  0
   70.1395   49.1521   53.9149 C   0  0  0  0  0  0  0  0  0  0  0  0
   71.3331   49.2900   53.1779 O   0  0  0  0  0  0  0  0  0  0  0  0
   69.0474   50.8880   55.2229 C   0  0  0  0  0  0  0  0  0  0  0  0
   69.4007   50.4517   53.8107 C   0  0  0  0  0  0  0  0  0  0  0  0
   70.2773   51.4592   53.2423 N   0  0  0  0  0  0  0  0  0  0  0  0
 12 11  1  0  0  0
 12 13  1  0  0  0
 12  9  1  0  0  0
  9 10  1  0  0  0
  9  1  1  0  0  0
  1  2  2  0  0  0
  1  8  1  0  0  0
  2  3  1  0  0  0
  3  4  2  0  0  0
  4  5  1  0  0  0
  4  6  1  0  0  0
  6  7  1  0  0  0
  6  8  2  0  0  0
M  CHG 1  13   1
M  END
> <minimizedAffinity>
-6.34180

$$$$
../data/sim29_sdf/CHEMBL3637795.pdb


 20 21  0  0  0  0  0  0  0  0999 V2000
   69.4798   49.4204   52.8760 C   0  0  0  0  0  0  0  0  0  0  0  0
   69.9427   49.2713   51.5590 O   0  0  0  0  0  0  0  0  0  0  0  0
   67.8861   44.4836   55.1492 N   0  0  0  0  0  0  0  0  0  0  0  0
   68.2690   45.7097   54.5559 C   0  0  0  0  0  0  0  0  0  0  0  0
   68.2662   45.8781   53.1873 C   0  0  0  0  0  0  0  0  0  0  0  0
   68.6502   47.0855   52.6030 C   0  0  0  0  0  0  0  0  0  0  0  0
   69.0375   48.1157   53.4135 C   0  0  0  0  0  0  0  0  0  0  0  0
   69.0387   47.9383   54.7997 C   0  0  0  0  0  0  0  0  0  0  0  0
   68.6584   46.7493   55.3724 C   0  0  0  0  0  0  0  0  0  0  0  0
   68.6575   46.5654   56.7571 O   0  0  0  0  0  0  0  0  0  0  0  0
   70.6044   50.0255   53.6792 C   0  0  0  0  0  0  0  0  0  0  0  0
   70.4818   51.4845   53.5754 N   0  0  0  0  0  0  0  0  0  0  0  0
   70.3401   52.1341   54.8491 C   0  0  0  0  0  0  0  0  0  0  0  0
   68.9076   52.3355   55.1766 C   0  0  0  0  0  0  0  0  0  0  0  0
   68.4317   51.4807   56.2877 C   0  0  0  0  0  0  0  0  0  0  0  0
   69.4155   50.7554   56.9729 C   0  0  0  0  0  0  0  0  0  0  0  0
   69.0895   49.9209   58.0130 C   0  0  0  0  0  0  0  0  0  0  0  0
   67.7886   49.7608   58.4268 C   0  0  0  0  0  0  0  0  0  0  0  0
   66.8100   50.4867   57.7412 C   0  0  0  0  0  0  0  0  0  0  0  0
   67.1480   51.3255   56.6940 C   0  0  0  0  0  0  0  0  0  0  0  0
  3  4  1  0  0  0
  4  5  2  0  0  0
  4  9  1  0  0  0
  5  6  1  0  0  0
  6  7  2  0  0  0
  7  1  1  0  0  0
  7  8  1  0  0  0
  1  2  1  0  0  0
  1 11  1  0  0  0
 11 12  1  0  0  0
 12 13  1  0  0  0
 13 14  1  0  0  0
 14 15  1  0  0  0
 15 16  2  0  0  0
 15 20  1  0  0  0
 16 17  1  0  0  0
 17 18  2  0  0  0
 18 19  1  0  0  0
 19 20  2  0  0  0
  8  9  2  0  0  0
  9 10  1  0  0  0
M  CHG 1  12   1
M  END
> <minimizedAffinity>
-7.27542

$$$$
../data/sim29_sdf/CHEMBL3637795.pdb


 20 21  0  0  0  0  0  0  0  0999 V2000
   68.9963   46.7880   56.0025 C   0  0  0  0  0  0  0  0  0  0  0  0
   68.2871   45.6101   55.8408 O   0  0  0  0  0  0  0  0  0  0  0  0
   69.8132   49.6134   51.1818 N   0  0  0  0  0  0  0  0  0  0  0  0
   69.6344   48.9537   52.4266 C   0  0  0  0  0  0  0  0  0  0  0  0
   70.0435   49.4750   53.6283 C   0  0  0  0  0  0  0  0  0  0  0  0
   69.8486   48.7979   54.7973 C   0  0  0  0  0  0  0  0  0  0  0  0
   69.2390   47.5780   54.8074 C   0  0  0  0  0  0  0  0  0  0  0  0
   68.8206   47.0458   53.5820 C   0  0  0  0  0  0  0  0  0  0  0  0
   69.0198   47.7286   52.4246 C   0  0  0  0  0  0  0  0  0  0  0  0
   68.5866   47.1608   51.2128 O   0  0  0  0  0  0  0  0  0  0  0  0
   68.6569   47.5711   57.2046 C   0  0  0  0  0  0  0  0  0  0  0  0
   67.4035   48.1788   57.3480 N   0  0  0  0  0  0  0  0  0  0  0  0
   67.2314   49.3292   58.1389 C   0  0  0  0  0  0  0  0  0  0  0  0
   67.0604   50.5222   57.1866 C   0  0  0  0  0  0  0  0  0  0  0  0
   68.3228   51.2139   56.9166 C   0  0  0  0  0  0  0  0  0  0  0  0
   68.3964   52.0580   55.8024 C   0  0  0  0  0  0  0  0  0  0  0  0
   69.5370   52.7488   55.4788 C   0  0  0  0  0  0  0  0  0  0  0  0
   70.6618   52.6286   56.2577 C   0  0  0  0  0  0  0  0  0  0  0  0
   70.5878   51.7956   57.3582 C   0  0  0  0  0  0  0  0  0  0  0  0
   69.4493   51.0963   57.6928 C   0  0  0  0  0  0  0  0  0  0  0  0
  3  4  1  0  0  0
  4  5  2  0  0  0
  4  9  1  0  0  0
  5  6  1  0  0  0
  6  7  2  0  0  0
  7  1  1  0  0  0
  7  8  1  0  0  0
  1  2  1  0  0  0
  1 11  1  0  0  0
 11 12  1  0  0  0
 12 13  1  0  0  0
 13 14  1  0  0  0
 14 15  1  0  0  0
 15 16  2  0  0  0
 15 20  1  0  0  0
 16 17  1  0  0  0
 17 18  2  0  0  0
 18 19  1  0  0  0
 19 20  2  0  0  0
  8  9  2  0  0  0
  9 10  1  0  0  0
M  CHG 1  12   1
M  END
> <minimizedAffinity>
-7.02343

$$$$
../data/sim29_sdf/CHEMBL3637795.pdb


 20 21  0  0  0  0  0  0  0  0999 V2000
   69.7376   49.0662   52.7428 C   0  0  0  0  0  0  0  0  0  0  0  0
   71.1440   49.1015   52.9719 O   0  0  0  0  0  0  0  0  0  0  0  0
   67.6393   44.2375   55.0092 N   0  0  0  0  0  0  0  0  0  0  0  0
   68.1630   45.4557   54.4578 C   0  0  0  0  0  0  0  0  0  0  0  0
   68.1281   45.6820   53.0951 C   0  0  0  0  0  0  0  0  0  0  0  0
   68.6366   46.8633   52.5439 C   0  0  0  0  0  0  0  0  0  0  0  0
   69.1882   47.8426   53.3346 C   0  0  0  0  0  0  0  0  0  0  0  0
   69.2043   47.5793   54.6948 C   0  0  0  0  0  0  0  0  0  0  0  0
   68.7118   46.4267   55.2667 C   0  0  0  0  0  0  0  0  0  0  0  0
   68.7750   46.2517   56.6639 O   0  0  0  0  0  0  0  0  0  0  0  0
   69.2222   50.3665   53.2315 C   0  0  0  0  0  0  0  0  0  0  0  0
   70.1818   51.3733   53.5394 N   0  0  0  0  0  0  0  0  0  0  0  0
   69.7619   52.0501   54.7854 C   0  0  0  0  0  0  0  0  0  0  0  0
   70.2482   51.2051   55.9768 C   0  0  0  0  0  0  0  0  0  0  0  0
   68.9967   50.8313   56.7357 C   0  0  0  0  0  0  0  0  0  0  0  0
   69.0731   49.6629   57.4839 C   0  0  0  0  0  0  0  0  0  0  0  0
   67.9356   49.2554   58.1442 C   0  0  0  0  0  0  0  0  0  0  0  0
   66.7415   49.9667   58.0804 C   0  0  0  0  0  0  0  0  0  0  0  0
   66.7158   51.1179   57.3266 C   0  0  0  0  0  0  0  0  0  0  0  0
   67.8437   51.5625   56.6485 C   0  0  0  0  0  0  0  0  0  0  0  0
  3  4  1  0  0  0
  4  5  2  0  0  0
  4  9  1  0  0  0
  5  6  1  0  0  0
  6  7  2  0  0  0
  7  1  1  0  0  0
  7  8  1  0  0  0
  1  2  1  0  0  0
  1 11  1  0  0  0
 11 12  1  0  0  0
 12 13  1  0  0  0
 13 14  1  0  0  0
 14 15  1  0  0  0
 15 16  2  0  0  0
 15 20  1  0  0  0
 16 17  1  0  0  0
 17 18  2  0  0  0
 18 19  1  0  0  0
 19 20  2  0  0  0
  8  9  2  0  0  0
  9 10  1  0  0  0
M  CHG 1  12   1
M  END
> <minimizedAffinity>
-7.47219

$$$$
