../data/sim29_sdf/CHEMBL677.pdb


 13 13  0  0  0  0  0  0  0  0999 V2000
   69.1202   49.7784   54.6454 C   0  0  0  0  0  0  0  0  0  0  0  0
   69.0475   48.3892   54.8314 C   0  0  0  0  0  0  0  0  0  0  0  0
   69.2022   47.4962   53.7931 C   0  0  0  0  0  0  0  0  0  0  0  0
   69.4378   47.9596   52.5198 C   0  0  0  0  0  0  0  0  0  0  0  0
   69.6020   47.1036   51.4292 O   0  0  0  0  0  0  0  0  0  0  0  0
   69.5146   49.3285   52.3105 C   0  0  0  0  0  0  0  0  0  0  0  0
   69.7485   49.8475   51.0504 O   0  0  0  0  0  0  0  0  0  0  0  0
   69.3534   50.2121   53.3856 C   0  0  0  0  0  0  0  0  0  0  0  0
   68.9584   50.6528   55.7962 C   0  0  0  0  0  0  0  0  0  0  0  0
   68.1651   51.7564   55.3665 O   0  0  0  0  0  0  0  0  0  0  0  0
   67.1099   50.9524   57.4178 C   0  0  0  0  0  0  0  0  0  0  0  0
   68.2837   50.0697   56.9689 C   0  0  0  0  0  0  0  0  0  0  0  0
   69.1651   49.9663   58.0836 N   0  0  0  0  0  0  0  0  0  0  0  0
 12 11  1  0  0  0
 12 13  1  0  0  0
 12  9  1  0  0  0
  9 10  1  0  0  0
  9  1  1  0  0  0
  1  2  2  0  0  0
  1  8  1  0  0  0
  2  3  1  0  0  0
  3  4  2  0  0  0
  4  5  1  0  0  0
  4  6  1  0  0  0
  6  7  1  0  0  0
  6  8  2  0  0  0
M  CHG 1  13   1
M  END
> <minimizedAffinity>
-6.25922

$$$$
../data/sim29_sdf/CHEMBL155014.pdb


 22 23  0  0  0  0  0  0  0  0999 V2000
   69.0782   50.3783   56.2049 C   0  0  0  0  0  0  0  0  0  0  0  0
   69.1753   49.5141   54.9682 C   0  0  0  0  0  0  0  0  0  0  0  0
   69.0224   48.1368   55.0606 C   0  0  0  0  0  0  0  0  0  0  0  0
   69.1162   47.3393   53.9529 C   0  0  0  0  0  0  0  0  0  0  0  0
   69.3671   47.8726   52.6926 C   0  0  0  0  0  0  0  0  0  0  0  0
   69.4652   47.0530   51.5452 N   0  0  0  0  0  0  0  0  0  0  0  0
   69.5206   49.2272   52.5829 C   0  0  0  0  0  0  0  0  0  0  0  0
   69.7760   49.8693   51.3662 O   0  0  0  0  0  0  0  0  0  0  0  0
   69.4240   50.0324   53.7179 C   0  0  0  0  0  0  0  0  0  0  0  0
   66.9452   50.9544   57.4562 C   0  0  0  0  0  0  0  0  0  0  0  0
   67.9163   49.9254   56.9856 C   0  0  0  0  0  0  0  0  0  0  0  0
   70.4069   50.4773   56.8837 C   0  0  0  0  0  0  0  0  0  0  0  0
   71.1223   51.7026   56.5020 C   0  0  0  0  0  0  0  0  0  0  0  0
   70.5907   52.9684   56.5005 C   0  0  0  0  0  0  0  0  0  0  0  0
   71.3228   54.0711   56.1221 C   0  0  0  0  0  0  0  0  0  0  0  0
   72.6344   53.9406   55.7256 C   0  0  0  0  0  0  0  0  0  0  0  0
   73.4176   55.0783   55.3248 N   0  0  0  0  0  0  0  0  0  0  0  0
   73.1822   52.6791   55.7210 C   0  0  0  0  0  0  0  0  0  0  0  0
   74.5253   52.5579   55.3126 O   0  0  0  0  0  0  0  0  0  0  0  0
   72.4429   51.5933   56.0996 C   0  0  0  0  0  0  0  0  0  0  0  0
   70.4577   50.1080   58.3161 C   0  0  0  0  0  0  0  0  0  0  0  0
   71.1583   48.7682   58.4616 C   0  0  0  0  0  0  0  0  0  0  0  0
 10 11  1  0  0  0
  1 11  1  0  0  0
  1  2  1  0  0  0
  1 12  1  0  0  0
  2  3  2  0  0  0
  2  9  1  0  0  0
  3  4  1  0  0  0
  4  5  2  0  0  0
  5  6  1  0  0  0
  5  7  1  0  0  0
  7  8  1  0  0  0
  7  9  2  0  0  0
 12 21  1  0  0  0
 12 13  1  0  0  0
 21 22  1  0  0  0
 13 14  2  0  0  0
 13 20  1  0  0  0
 14 15  1  0  0  0
 15 16  2  0  0  0
 16 17  1  0  0  0
 16 18  1  0  0  0
 18 19  1  0  0  0
 18 20  2  0  0  0
M  END
> <minimizedAffinity>
-8.05977

$$$$
../data/sim29_sdf/CHEMBL2062273.pdb


 12 12  0  0  0  0  0  0  0  0999 V2000
   69.3646   47.9763   53.2649 C   0  0  0  0  0  0  0  0  0  0  0  0
   68.9007   47.0064   52.4190 C   0  0  0  0  0  0  0  0  0  0  0  0
   68.3355   45.8626   52.9644 C   0  0  0  0  0  0  0  0  0  0  0  0
   68.2385   45.7005   54.3282 C   0  0  0  0  0  0  0  0  0  0  0  0
   67.6619   44.5355   54.8794 O   0  0  0  0  0  0  0  0  0  0  0  0
   68.7114   46.6899   55.1654 C   0  0  0  0  0  0  0  0  0  0  0  0
   68.5946   46.4871   56.5388 O   0  0  0  0  0  0  0  0  0  0  0  0
   69.2722   47.8223   54.6225 C   0  0  0  0  0  0  0  0  0  0  0  0
   69.9663   49.1921   52.7052 C   0  0  0  0  0  0  0  0  0  0  0  0
   69.7728   49.3049   51.3302 O   0  0  0  0  0  0  0  0  0  0  0  0
   70.1998   51.5489   53.3421 N   0  0  0  0  0  0  0  0  0  0  0  0
   69.3581   50.3753   53.4457 C   0  0  0  0  0  0  0  0  0  0  0  0
 11 12  1  0  0  0
 12  9  1  0  0  0
  9 10  1  0  0  0
  9  1  1  0  0  0
  1  2  2  0  0  0
  1  8  1  0  0  0
  2  3  1  0  0  0
  3  4  2  0  0  0
  4  5  1  0  0  0
  4  6  1  0  0  0
  6  7  1  0  0  0
  6  8  2  0  0  0
M  CHG 1  11   1
M  END
> <minimizedAffinity>
-6.03912

$$$$
../data/sim29_sdf/CHEMBL288787.pdb


 11 11  0  0  0  0  0  0  0  0999 V2000
   69.0169   47.7384   54.7268 C   0  0  0  0  0  0  0  0  0  0  0  0
   69.1242   49.1144   54.7238 C   0  0  0  0  0  0  0  0  0  0  0  0
   69.3666   49.8000   53.5328 C   0  0  0  0  0  0  0  0  0  0  0  0
   69.5078   49.1469   52.3257 C   0  0  0  0  0  0  0  0  0  0  0  0
   69.7485   49.8514   51.1508 O   0  0  0  0  0  0  0  0  0  0  0  0
   69.3970   47.7701   52.3497 C   0  0  0  0  0  0  0  0  0  0  0  0
   69.5351   47.1037   51.1517 O   0  0  0  0  0  0  0  0  0  0  0  0
   69.1571   47.0782   53.5211 C   0  0  0  0  0  0  0  0  0  0  0  0
   68.4641   45.6289   55.8046 N   0  0  0  0  0  0  0  0  0  0  0  0
   68.7583   47.0285   56.0094 C   0  0  0  0  0  0  0  0  0  0  0  0
   67.6818   47.5796   56.7045 O   0  0  0  0  0  0  0  0  0  0  0  0
 10  9  1  0  0  0
 10 11  1  0  0  0
 10  1  1  0  0  0
  1  2  2  0  0  0
  1  8  1  0  0  0
  2  3  1  0  0  0
  3  4  2  0  0  0
  4  5  1  0  0  0
  4  6  1  0  0  0
  6  7  1  0  0  0
  6  8  2  0  0  0
M  CHG 1   9   1
M  END
> <minimizedAffinity>
-6.29536

$$$$
../data/sim29_sdf/CHEMBL432.pdb


 12 12  0  0  0  0  0  0  0  0999 V2000
   69.1384   48.0440   54.6721 C   0  0  0  0  0  0  0  0  0  0  0  0
   69.2216   49.4151   54.5592 C   0  0  0  0  0  0  0  0  0  0  0  0
   69.4078   50.0475   53.3436 C   0  0  0  0  0  0  0  0  0  0  0  0
   69.5111   49.2545   52.2268 C   0  0  0  0  0  0  0  0  0  0  0  0
   69.7000   49.8938   50.9981 O   0  0  0  0  0  0  0  0  0  0  0  0
   69.4271   47.8860   52.3465 C   0  0  0  0  0  0  0  0  0  0  0  0
   69.5387   47.1379   51.1861 O   0  0  0  0  0  0  0  0  0  0  0  0
   69.2405   47.2396   53.5608 C   0  0  0  0  0  0  0  0  0  0  0  0
   68.9380   47.4716   56.0244 C   0  0  0  0  0  0  0  0  0  0  0  0
   68.0088   46.4240   55.9318 O   0  0  0  0  0  0  0  0  0  0  0  0
   67.0700   48.1623   57.4594 N   0  0  0  0  0  0  0  0  0  0  0  0
   68.4118   48.5111   56.9986 C   0  0  0  0  0  0  0  0  0  0  0  0
 11 12  1  0  0  0
 12  9  1  0  0  0
  9 10  1  0  0  0
  9  1  1  0  0  0
  1  2  2  0  0  0
  1  8  1  0  0  0
  2  3  1  0  0  0
  3  4  2  0  0  0
  4  5  1  0  0  0
  4  6  1  0  0  0
  6  7  1  0  0  0
  6  8  2  0  0  0
M  CHG 1  11   1
M  END
> <minimizedAffinity>
-6.13834

$$$$
../data/sim29_sdf/CHEMBL2062274.pdb


 12 12  0  0  0  0  0  0  0  0999 V2000
   68.9865   47.9350   53.2686 C   0  0  0  0  0  0  0  0  0  0  0  0
   68.5368   46.8657   52.4966 C   0  0  0  0  0  0  0  0  0  0  0  0
   68.1432   45.6902   53.0997 C   0  0  0  0  0  0  0  0  0  0  0  0
   68.1765   45.5197   54.4685 C   0  0  0  0  0  0  0  0  0  0  0  0
   67.7757   44.3282   55.0481 O   0  0  0  0  0  0  0  0  0  0  0  0
   68.6159   46.5644   55.2306 C   0  0  0  0  0  0  0  0  0  0  0  0
   68.6645   46.4312   56.6277 O   0  0  0  0  0  0  0  0  0  0  0  0
   69.0083   47.7402   54.6269 C   0  0  0  0  0  0  0  0  0  0  0  0
   69.4041   49.1898   52.6101 C   0  0  0  0  0  0  0  0  0  0  0  0
   70.3176   48.8314   51.6045 O   0  0  0  0  0  0  0  0  0  0  0  0
   71.4900   49.8627   53.6896 N   0  0  0  0  0  0  0  0  0  0  0  0
   70.0551   50.0835   53.6232 C   0  0  0  0  0  0  0  0  0  0  0  0
 11 12  1  0  0  0
 12  9  1  0  0  0
  9 10  1  0  0  0
  9  1  1  0  0  0
  1  2  2  0  0  0
  1  8  1  0  0  0
  2  3  1  0  0  0
  3  4  2  0  0  0
  4  5  1  0  0  0
  4  6  1  0  0  0
  6  7  1  0  0  0
  6  8  2  0  0  0
M  CHG 1  11   1
M  END
> <minimizedAffinity>
-6.15185

$$$$
../data/sim29_sdf/CHEMBL1320902.pdb


 13 13  0  0  0  0  0  0  0  0999 V2000
   69.1056   49.7841   54.6681 C   0  0  0  0  0  0  0  0  0  0  0  0
   69.0503   48.4064   54.8592 C   0  0  0  0  0  0  0  0  0  0  0  0
   69.2236   47.5457   53.7944 C   0  0  0  0  0  0  0  0  0  0  0  0
   69.4565   47.9935   52.5115 C   0  0  0  0  0  0  0  0  0  0  0  0
   69.6314   47.1254   51.4365 O   0  0  0  0  0  0  0  0  0  0  0  0
   69.5118   49.3570   52.3131 C   0  0  0  0  0  0  0  0  0  0  0  0
   69.7477   49.8416   51.0134 O   0  0  0  0  0  0  0  0  0  0  0  0
   69.3385   50.2144   53.3784 C   0  0  0  0  0  0  0  0  0  0  0  0
   68.9235   50.7275   55.7865 C   0  0  0  0  0  0  0  0  0  0  0  0
   68.2687   51.8897   55.4265 O   0  0  0  0  0  0  0  0  0  0  0  0
   67.1127   50.9506   57.4284 C   0  0  0  0  0  0  0  0  0  0  0  0
   68.2915   50.0738   57.0013 C   0  0  0  0  0  0  0  0  0  0  0  0
   69.1665   49.9975   58.1189 N   0  0  0  0  0  0  0  0  0  0  0  0
 12 11  1  0  0  0
 12 13  1  0  0  0
 12  9  1  0  0  0
  9 10  1  0  0  0
  9  1  1  0  0  0
  1  2  2  0  0  0
  1  8  1  0  0  0
  2  3  1  0  0  0
  3  4  2  0  0  0
  4  5  1  0  0  0
  4  6  1  0  0  0
  6  7  1  0  0  0
  6  8  2  0  0  0
M  CHG 1  13   1
M  END
> <minimizedAffinity>
-6.23424

$$$$
../data/sim29_sdf/CHEMBL764.pdb


 13 13  0  0  0  0  0  0  0  0999 V2000
   68.9575   48.0598   55.0108 C   0  0  0  0  0  0  0  0  0  0  0  0
   68.3478   46.8619   54.6202 C   0  0  0  0  0  0  0  0  0  0  0  0
   68.3515   46.4523   53.3113 C   0  0  0  0  0  0  0  0  0  0  0  0
   68.9511   47.1993   52.3352 C   0  0  0  0  0  0  0  0  0  0  0  0
   68.9777   46.8168   50.9887 O   0  0  0  0  0  0  0  0  0  0  0  0
   69.5552   48.3806   52.7070 C   0  0  0  0  0  0  0  0  0  0  0  0
   70.1682   49.1422   51.7095 O   0  0  0  0  0  0  0  0  0  0  0  0
   69.5487   48.7855   54.0184 C   0  0  0  0  0  0  0  0  0  0  0  0
   68.9021   48.4182   56.4343 C   0  0  0  0  0  0  0  0  0  0  0  0
   67.8490   47.6366   56.9729 O   0  0  0  0  0  0  0  0  0  0  0  0
   67.4078   50.0648   57.6341 C   0  0  0  0  0  0  0  0  0  0  0  0
   68.5613   49.8393   56.7226 C   0  0  0  0  0  0  0  0  0  0  0  0
   69.7542   50.5713   57.1365 N   0  0  0  0  0  0  0  0  0  0  0  0
 12 11  1  0  0  0
 12 13  1  0  0  0
 12  9  1  0  0  0
  9 10  1  0  0  0
  9  1  1  0  0  0
  1  2  2  0  0  0
  1  8  1  0  0  0
  2  3  1  0  0  0
  3  4  2  0  0  0
  4  5  1  0  0  0
  4  6  1  0  0  0
  6  7  1  0  0  0
  6  8  2  0  0  0
M  CHG 1  13   1
M  END
> <minimizedAffinity>
-6.21511

$$$$
../data/sim29_sdf/CHEMBL1434513.pdb


 12 12  0  0  0  0  0  0  0  0999 V2000
   69.3585   47.9131   53.2699 C   0  0  0  0  0  0  0  0  0  0  0  0
   68.8600   46.9708   52.4253 C   0  0  0  0  0  0  0  0  0  0  0  0
   68.2783   45.8254   52.9603 C   0  0  0  0  0  0  0  0  0  0  0  0
   68.2070   45.6467   54.3262 C   0  0  0  0  0  0  0  0  0  0  0  0
   67.6381   44.5270   54.9037 O   0  0  0  0  0  0  0  0  0  0  0  0
   68.7168   46.6103   55.1856 C   0  0  0  0  0  0  0  0  0  0  0  0
   68.6540   46.4477   56.5543 O   0  0  0  0  0  0  0  0  0  0  0  0
   69.2877   47.7358   54.6166 C   0  0  0  0  0  0  0  0  0  0  0  0
   69.9858   49.1469   52.7316 C   0  0  0  0  0  0  0  0  0  0  0  0
   69.8229   49.2364   51.3605 O   0  0  0  0  0  0  0  0  0  0  0  0
   70.1624   51.5075   53.3775 N   0  0  0  0  0  0  0  0  0  0  0  0
   69.3438   50.3279   53.3784 C   0  0  0  0  0  0  0  0  0  0  0  0
 11 12  1  0  0  0
 12  9  1  0  0  0
  9 10  1  0  0  0
  9  1  1  0  0  0
  1  2  2  0  0  0
  1  8  1  0  0  0
  2  3  1  0  0  0
  3  4  2  0  0  0
  4  5  1  0  0  0
  4  6  1  0  0  0
  6  7  1  0  0  0
  6  8  2  0  0  0
M  CHG 1  11   1
M  END
> <minimizedAffinity>
-6.02015

$$$$
../data/sim29_sdf/CHEMBL1734806.pdb


 12 12  0  0  0  0  0  0  0  0999 V2000
   69.3683   47.9721   53.4768 C   0  0  0  0  0  0  0  0  0  0  0  0
   69.0007   47.7994   52.1672 C   0  0  0  0  0  0  0  0  0  0  0  0
   68.2388   46.7104   51.7475 C   0  0  0  0  0  0  0  0  0  0  0  0
   67.8404   45.7765   52.6712 C   0  0  0  0  0  0  0  0  0  0  0  0
   67.0739   44.6613   52.3098 O   0  0  0  0  0  0  0  0  0  0  0  0
   68.2027   45.9359   53.9906 C   0  0  0  0  0  0  0  0  0  0  0  0
   67.8217   45.0176   54.9546 O   0  0  0  0  0  0  0  0  0  0  0  0
   68.9592   47.0224   54.3957 C   0  0  0  0  0  0  0  0  0  0  0  0
   70.1792   49.1361   53.9074 C   0  0  0  0  0  0  0  0  0  0  0  0
   71.3198   49.2183   53.1276 O   0  0  0  0  0  0  0  0  0  0  0  0
   70.1698   51.5030   53.2640 N   0  0  0  0  0  0  0  0  0  0  0  0
   69.3730   50.4351   53.7749 C   0  0  0  0  0  0  0  0  0  0  0  0
 11 12  1  0  0  0
 12  9  1  0  0  0
  9 10  1  0  0  0
  9  1  1  0  0  0
  1  2  2  0  0  0
  1  8  1  0  0  0
  2  3  1  0  0  0
  3  4  2  0  0  0
  4  5  1  0  0  0
  4  6  1  0  0  0
  6  7  1  0  0  0
  6  8  2  0  0  0
M  CHG 1  11   1
M  END
> <minimizedAffinity>
-5.95711

$$$$
../data/sim29_sdf/CHEMBL1356607.pdb


 12 12  0  0  0  0  0  0  0  0999 V2000
   69.3609   47.9558   53.5307 C   0  0  0  0  0  0  0  0  0  0  0  0
   69.0170   47.8210   52.2013 C   0  0  0  0  0  0  0  0  0  0  0  0
   68.2807   46.7429   51.8217 C   0  0  0  0  0  0  0  0  0  0  0  0
   67.8691   45.7821   52.7415 C   0  0  0  0  0  0  0  0  0  0  0  0
   67.1326   44.7364   52.2585 O   0  0  0  0  0  0  0  0  0  0  0  0
   68.2011   45.9005   54.0618 C   0  0  0  0  0  0  0  0  0  0  0  0
   67.8004   44.9497   55.0008 O   0  0  0  0  0  0  0  0  0  0  0  0
   68.9486   46.9984   54.4333 C   0  0  0  0  0  0  0  0  0  0  0  0
   70.1675   49.1312   53.9635 C   0  0  0  0  0  0  0  0  0  0  0  0
   71.3061   49.2838   53.1801 O   0  0  0  0  0  0  0  0  0  0  0  0
   70.1603   51.4160   53.2444 N   0  0  0  0  0  0  0  0  0  0  0  0
   69.3728   50.4089   53.9011 C   0  0  0  0  0  0  0  0  0  0  0  0
 11 12  1  0  0  0
 12  9  1  0  0  0
  9 10  1  0  0  0
  9  1  1  0  0  0
  1  2  2  0  0  0
  1  8  1  0  0  0
  2  3  1  0  0  0
  3  4  2  0  0  0
  4  5  1  0  0  0
  4  6  1  0  0  0
  6  7  1  0  0  0
  6  8  2  0  0  0
M  CHG 1  11   1
M  END
> <minimizedAffinity>
-5.98967

$$$$
../data/sim29_sdf/CHEMBL1545498.pdb


 11 11  0  0  0  0  0  0  0  0999 V2000
   69.0413   47.7278   55.0456 C   0  0  0  0  0  0  0  0  0  0  0  0
   68.2340   46.6697   54.6563 C   0  0  0  0  0  0  0  0  0  0  0  0
   68.0362   46.3440   53.3305 C   0  0  0  0  0  0  0  0  0  0  0  0
   68.6486   47.0765   52.3459 C   0  0  0  0  0  0  0  0  0  0  0  0
   68.4648   46.7686   51.0020 O   0  0  0  0  0  0  0  0  0  0  0  0
   69.4616   48.1398   52.6891 C   0  0  0  0  0  0  0  0  0  0  0  0
   70.1062   48.9128   51.7042 N   0  0  0  0  0  0  0  0  0  0  0  0
   69.6415   48.4418   54.0322 C   0  0  0  0  0  0  0  0  0  0  0  0
   67.9623   48.3863   57.1899 C   0  0  0  0  0  0  0  0  0  0  0  0
   69.2365   48.0537   56.4612 C   0  0  0  0  0  0  0  0  0  0  0  0
   69.8979   46.9044   57.2319 C   0  0  0  0  0  0  0  0  0  0  0  0
  9 10  1  0  0  0
 10 11  1  0  0  0
 10  1  1  0  0  0
  1  2  2  0  0  0
  1  8  1  0  0  0
  2  3  1  0  0  0
  3  4  2  0  0  0
  4  5  1  0  0  0
  4  6  1  0  0  0
  6  7  1  0  0  0
  6  8  2  0  0  0
M  END
> <minimizedAffinity>
-5.76847

$$$$
../data/sim29_sdf/CHEMBL2130595.pdb


 12 12  0  0  0  0  0  0  0  0999 V2000
   69.2964   47.9900   53.3192 C   0  0  0  0  0  0  0  0  0  0  0  0
   68.8065   46.9997   52.5148 C   0  0  0  0  0  0  0  0  0  0  0  0
   68.2724   45.8421   53.0371 C   0  0  0  0  0  0  0  0  0  0  0  0
   68.2102   45.6335   54.4202 C   0  0  0  0  0  0  0  0  0  0  0  0
   67.6711   44.4647   54.9319 O   0  0  0  0  0  0  0  0  0  0  0  0
   68.7031   46.6298   55.2299 C   0  0  0  0  0  0  0  0  0  0  0  0
   68.6671   46.4778   56.6044 O   0  0  0  0  0  0  0  0  0  0  0  0
   69.2333   47.7807   54.6838 C   0  0  0  0  0  0  0  0  0  0  0  0
   69.8788   49.2457   52.8632 C   0  0  0  0  0  0  0  0  0  0  0  0
   69.7910   49.2611   51.4670 O   0  0  0  0  0  0  0  0  0  0  0  0
   70.3241   51.5343   53.4785 N   0  0  0  0  0  0  0  0  0  0  0  0
   69.2868   50.4921   53.3883 C   0  0  0  0  0  0  0  0  0  0  0  0
 11 12  1  0  0  0
 12  9  1  0  0  0
  9 10  1  0  0  0
  9  1  1  0  0  0
  1  2  2  0  0  0
  1  8  1  0  0  0
  2  3  1  0  0  0
  3  4  2  0  0  0
  4  5  1  0  0  0
  4  6  1  0  0  0
  6  7  1  0  0  0
  6  8  2  0  0  0
M  CHG 1  11   1
M  END
> <minimizedAffinity>
-6.04311

$$$$
../data/sim29_sdf/CHEMBL18824.pdb


 12 12  0  0  0  0  0  0  0  0999 V2000
   69.1156   48.2410   54.7943 C   0  0  0  0  0  0  0  0  0  0  0  0
   69.1673   49.6056   54.6343 C   0  0  0  0  0  0  0  0  0  0  0  0
   69.3654   50.1462   53.3845 C   0  0  0  0  0  0  0  0  0  0  0  0
   69.5134   49.3362   52.2834 C   0  0  0  0  0  0  0  0  0  0  0  0
   69.7140   49.9093   51.0186 O   0  0  0  0  0  0  0  0  0  0  0  0
   69.4646   47.9876   52.4305 C   0  0  0  0  0  0  0  0  0  0  0  0
   69.6132   47.1596   51.3222 O   0  0  0  0  0  0  0  0  0  0  0  0
   69.2697   47.4493   53.6617 C   0  0  0  0  0  0  0  0  0  0  0  0
   68.9077   47.6227   56.1085 C   0  0  0  0  0  0  0  0  0  0  0  0
   67.8841   46.6588   55.9600 O   0  0  0  0  0  0  0  0  0  0  0  0
   67.0433   48.1802   57.4737 N   0  0  0  0  0  0  0  0  0  0  0  0
   68.3988   48.6185   57.1097 C   0  0  0  0  0  0  0  0  0  0  0  0
 11 12  1  0  0  0
 12  9  1  0  0  0
  9 10  1  0  0  0
  9  1  1  0  0  0
  1  2  2  0  0  0
  1  8  1  0  0  0
  2  3  1  0  0  0
  3  4  2  0  0  0
  4  5  1  0  0  0
  4  6  1  0  0  0
  6  7  1  0  0  0
  6  8  2  0  0  0
M  CHG 1  11   1
M  END
> <minimizedAffinity>
-6.12552

$$$$
../data/sim29_sdf/CHEMBL85811.pdb


 16 17  0  0  0  0  0  0  0  0999 V2000
   67.3212   45.2696   52.4637 N   0  0  0  0  0  0  0  0  0  0  0  0
   68.0658   46.2978   53.1214 C   0  0  0  0  0  0  0  0  0  0  0  0
   67.9592   46.5309   54.4749 C   0  0  0  0  0  0  0  0  0  0  0  0
   68.6859   47.5332   55.1106 C   0  0  0  0  0  0  0  0  0  0  0  0
   69.5501   48.3396   54.3944 C   0  0  0  0  0  0  0  0  0  0  0  0
   69.6515   48.0999   53.0397 C   0  0  0  0  0  0  0  0  0  0  0  0
   68.9286   47.1028   52.4089 C   0  0  0  0  0  0  0  0  0  0  0  0
   69.0434   46.8766   51.0405 O   0  0  0  0  0  0  0  0  0  0  0  0
   70.3220   49.3973   55.0459 C   0  0  0  0  0  0  0  0  0  0  0  0
   70.3753   49.5409   56.4208 C   0  0  0  0  0  0  0  0  0  0  0  0
   71.0872   50.5184   57.0732 C   0  0  0  0  0  0  0  0  0  0  0  0
   71.8028   51.4246   56.3126 C   0  0  0  0  0  0  0  0  0  0  0  0
   72.5328   52.4261   56.9812 N   0  0  0  0  0  0  0  0  0  0  0  0
   71.7861   51.3269   54.9236 C   0  0  0  0  0  0  0  0  0  0  0  0
   72.5293   52.2734   54.2336 O   0  0  0  0  0  0  0  0  0  0  0  0
   71.0545   50.3271   54.3170 C   0  0  0  0  0  0  0  0  0  0  0  0
  1  2  1  0  0  0
  2  3  2  0  0  0
  2  7  1  0  0  0
  3  4  1  0  0  0
  4  5  2  0  0  0
  5  9  1  0  0  0
  5  6  1  0  0  0
  9 10  2  0  0  0
  9 16  1  0  0  0
 10 11  1  0  0  0
 11 12  2  0  0  0
 12 13  1  0  0  0
 12 14  1  0  0  0
 14 15  1  0  0  0
 14 16  2  0  0  0
  6  7  2  0  0  0
  7  8  1  0  0  0
M  END
> <minimizedAffinity>
-6.92038

$$$$
../data/sim29_sdf/CHEMBL2074780.pdb


 13 13  0  0  0  0  0  0  0  0999 V2000
   68.9207   47.9459   55.1013 C   0  0  0  0  0  0  0  0  0  0  0  0
   68.2353   46.8566   54.5963 C   0  0  0  0  0  0  0  0  0  0  0  0
   68.3146   46.5114   53.2500 C   0  0  0  0  0  0  0  0  0  0  0  0
   69.0782   47.2501   52.4009 C   0  0  0  0  0  0  0  0  0  0  0  0
   69.1466   46.8918   51.0594 O   0  0  0  0  0  0  0  0  0  0  0  0
   69.7739   48.3485   52.8950 C   0  0  0  0  0  0  0  0  0  0  0  0
   70.5436   49.0810   51.9990 O   0  0  0  0  0  0  0  0  0  0  0  0
   69.6795   48.6734   54.2391 C   0  0  0  0  0  0  0  0  0  0  0  0
   68.7615   48.2148   56.5428 C   0  0  0  0  0  0  0  0  0  0  0  0
   67.5093   47.7280   56.9110 O   0  0  0  0  0  0  0  0  0  0  0  0
   69.5352   46.5570   57.9995 O   0  0  0  0  0  0  0  0  0  0  0  0
   69.7805   47.6323   57.3945 C   0  0  0  0  0  0  0  0  0  0  0  0
   71.0440   48.1595   57.6204 O   0  0  0  0  0  0  0  0  0  0  0  0
 11 12  2  0  0  0
 12 13  1  0  0  0
 12  9  1  0  0  0
  9 10  1  0  0  0
  9  1  1  0  0  0
  1  2  2  0  0  0
  1  8  1  0  0  0
  2  3  1  0  0  0
  3  4  2  0  0  0
  4  5  1  0  0  0
  4  6  1  0  0  0
  6  7  1  0  0  0
  6  8  2  0  0  0
M  END
> <minimizedAffinity>
-6.02902

$$$$
../data/sim29_sdf/CHEMBL164989.pdb


 11 11  0  0  0  0  0  0  0  0999 V2000
   69.8072   49.7534   51.2781 N   0  0  0  0  0  0  0  0  0  0  0  0
   69.4831   49.0379   52.4668 C   0  0  0  0  0  0  0  0  0  0  0  0
   69.3155   49.6547   53.6893 C   0  0  0  0  0  0  0  0  0  0  0  0
   68.9994   48.9256   54.8294 C   0  0  0  0  0  0  0  0  0  0  0  0
   68.8428   47.5579   54.7806 C   0  0  0  0  0  0  0  0  0  0  0  0
   69.0086   46.9346   53.5660 C   0  0  0  0  0  0  0  0  0  0  0  0
   69.3258   47.6678   52.4212 C   0  0  0  0  0  0  0  0  0  0  0  0
   69.4961   47.0478   51.1812 O   0  0  0  0  0  0  0  0  0  0  0  0
   68.5180   46.8210   55.9590 N   0  0  0  0  0  0  0  0  0  0  0  0
   68.1733   47.3733   57.0187 O   0  0  0  0  0  0  0  0  0  0  0  0
   68.5737   45.4471   55.9680 O   0  0  0  0  0  0  0  0  0  0  0  0
  1  2  1  0  0  0
  2  3  2  0  0  0
  2  7  1  0  0  0
  3  4  1  0  0  0
  4  5  2  0  0  0
  5  9  1  0  0  0
  5  6  1  0  0  0
  9 10  2  0  0  0
  9 11  1  0  0  0
  6  7  2  0  0  0
  7  8  1  0  0  0
M  CHG 1   9   1
M  CHG 1  11  -1
M  END
> <minimizedAffinity>
-5.96917

$$$$
../data/sim29_sdf/CHEMBL2311152.pdb


 12 12  0  0  0  0  0  0  0  0999 V2000
   68.8635   47.8176   55.1580 C   0  0  0  0  0  0  0  0  0  0  0  0
   68.2840   46.7280   54.5976 C   0  0  0  0  0  0  0  0  0  0  0  0
   68.4284   46.4039   53.2414 C   0  0  0  0  0  0  0  0  0  0  0  0
   69.1925   47.2382   52.4606 C   0  0  0  0  0  0  0  0  0  0  0  0
   69.3839   46.9801   51.0953 O   0  0  0  0  0  0  0  0  0  0  0  0
   69.7971   48.3541   52.9929 C   0  0  0  0  0  0  0  0  0  0  0  0
   70.5654   49.1781   52.1696 O   0  0  0  0  0  0  0  0  0  0  0  0
   69.6329   48.6405   54.3308 C   0  0  0  0  0  0  0  0  0  0  0  0
   68.7373   48.1743   56.5850 C   0  0  0  0  0  0  0  0  0  0  0  0
   67.4831   47.7849   57.0863 O   0  0  0  0  0  0  0  0  0  0  0  0
   69.8301   47.7066   57.4577 C   0  0  0  0  0  0  0  0  0  0  0  0
   69.7343   46.3840   57.9802 N   0  0  0  0  0  0  0  0  0  0  0  0
  9 10  1  0  0  0
  9 11  1  0  0  0
  9  1  1  0  0  0
 11 12  1  0  0  0
  1  2  2  0  0  0
  1  8  1  0  0  0
  2  3  1  0  0  0
  3  4  2  0  0  0
  4  5  1  0  0  0
  4  6  1  0  0  0
  6  7  1  0  0  0
  6  8  2  0  0  0
M  CHG 1  12   1
M  END
> <minimizedAffinity>
-5.91230

$$$$
../data/sim29_sdf/CHEMBL1160982.pdb


 13 13  0  0  0  0  0  0  0  0999 V2000
   68.7542   47.9867   55.3071 C   0  0  0  0  0  0  0  0  0  0  0  0
   68.1914   46.8781   54.7009 C   0  0  0  0  0  0  0  0  0  0  0  0
   68.4532   46.5480   53.3853 C   0  0  0  0  0  0  0  0  0  0  0  0
   69.2951   47.3150   52.6110 C   0  0  0  0  0  0  0  0  0  0  0  0
   69.5740   46.9989   51.2778 O   0  0  0  0  0  0  0  0  0  0  0  0
   69.8622   48.4225   53.2031 C   0  0  0  0  0  0  0  0  0  0  0  0
   70.7121   49.1872   52.4028 O   0  0  0  0  0  0  0  0  0  0  0  0
   69.5969   48.7463   54.5188 C   0  0  0  0  0  0  0  0  0  0  0  0
   68.4757   48.3463   56.7221 C   0  0  0  0  0  0  0  0  0  0  0  0
   67.2655   47.8811   57.1758 O   0  0  0  0  0  0  0  0  0  0  0  0
   67.5588   50.5733   57.4642 C   0  0  0  0  0  0  0  0  0  0  0  0
   68.7267   49.7949   57.0126 C   0  0  0  0  0  0  0  0  0  0  0  0
   69.8024   49.8503   58.0101 N   0  0  0  0  0  0  0  0  0  0  0  0
 12 11  1  0  0  0
 12 13  1  0  0  0
 12  9  1  0  0  0
  9 10  1  0  0  0
  9  1  1  0  0  0
  1  2  2  0  0  0
  1  8  1  0  0  0
  2  3  1  0  0  0
  3  4  2  0  0  0
  4  5  1  0  0  0
  4  6  1  0  0  0
  6  7  1  0  0  0
  6  8  2  0  0  0
M  CHG 1  13   1
M  END
> <minimizedAffinity>
-6.25336

$$$$
../data/sim29_sdf/CHEMBL1350643.pdb


 17 18  0  0  0  0  0  0  0  0999 V2000
   69.1824   50.8718   55.7882 C   0  0  0  0  0  0  0  0  0  0  0  0
   69.6219   47.2092   51.4627 N   0  0  0  0  0  0  0  0  0  0  0  0
   69.5117   48.1369   52.5539 C   0  0  0  0  0  0  0  0  0  0  0  0
   69.3736   47.7032   53.8565 C   0  0  0  0  0  0  0  0  0  0  0  0
   69.2644   48.5661   54.9271 C   0  0  0  0  0  0  0  0  0  0  0  0
   69.2974   49.9234   54.6591 C   0  0  0  0  0  0  0  0  0  0  0  0
   69.4365   50.3702   53.3439 C   0  0  0  0  0  0  0  0  0  0  0  0
   69.5431   49.4903   52.2961 C   0  0  0  0  0  0  0  0  0  0  0  0
   69.6793   49.9942   51.0044 O   0  0  0  0  0  0  0  0  0  0  0  0
   70.4091   51.7007   55.9590 C   0  0  0  0  0  0  0  0  0  0  0  0
   70.3641   53.0794   55.9489 C   0  0  0  0  0  0  0  0  0  0  0  0
   71.4922   53.8491   56.1061 C   0  0  0  0  0  0  0  0  0  0  0  0
   72.7221   53.2525   56.2822 C   0  0  0  0  0  0  0  0  0  0  0  0
   73.8962   54.0679   56.4452 N   0  0  0  0  0  0  0  0  0  0  0  0
   72.7929   51.8846   56.2957 C   0  0  0  0  0  0  0  0  0  0  0  0
   74.0091   51.2638   56.4703 O   0  0  0  0  0  0  0  0  0  0  0  0
   71.6585   51.1141   56.1380 C   0  0  0  0  0  0  0  0  0  0  0  0
  2  3  1  0  0  0
  3  4  2  0  0  0
  3  8  1  0  0  0
  4  5  1  0  0  0
  5  6  2  0  0  0
  6  1  1  0  0  0
  6  7  1  0  0  0
  1 10  1  0  0  0
 10 11  2  0  0  0
 10 17  1  0  0  0
 11 12  1  0  0  0
 12 13  2  0  0  0
 13 14  1  0  0  0
 13 15  1  0  0  0
 15 16  1  0  0  0
 15 17  2  0  0  0
  7  8  2  0  0  0
  8  9  1  0  0  0
M  END
> <minimizedAffinity>
-7.27259

$$$$
../data/sim29_sdf/CHEMBL1612659.pdb


 13 13  0  0  0  0  0  0  0  0999 V2000
   69.1201   49.7365   54.6636 C   0  0  0  0  0  0  0  0  0  0  0  0
   69.0392   48.3793   54.8884 C   0  0  0  0  0  0  0  0  0  0  0  0
   69.1938   47.5055   53.8322 C   0  0  0  0  0  0  0  0  0  0  0  0
   69.4303   48.0067   52.5567 C   0  0  0  0  0  0  0  0  0  0  0  0
   69.5921   47.1638   51.4704 O   0  0  0  0  0  0  0  0  0  0  0  0
   69.5124   49.3622   52.3262 C   0  0  0  0  0  0  0  0  0  0  0  0
   69.7478   49.8380   51.0508 O   0  0  0  0  0  0  0  0  0  0  0  0
   69.3573   50.2249   53.3743 C   0  0  0  0  0  0  0  0  0  0  0  0
   68.9629   50.7214   55.7478 C   0  0  0  0  0  0  0  0  0  0  0  0
   68.1764   51.7647   55.2356 O   0  0  0  0  0  0  0  0  0  0  0  0
   67.1299   50.9434   57.3710 C   0  0  0  0  0  0  0  0  0  0  0  0
   68.2859   50.0910   56.9563 C   0  0  0  0  0  0  0  0  0  0  0  0
   69.2159   49.9892   58.0639 N   0  0  0  0  0  0  0  0  0  0  0  0
 12 11  1  0  0  0
 12 13  1  0  0  0
 12  9  1  0  0  0
  9 10  1  0  0  0
  9  1  1  0  0  0
  1  2  2  0  0  0
  1  8  1  0  0  0
  2  3  1  0  0  0
  3  4  2  0  0  0
  4  5  1  0  0  0
  4  6  1  0  0  0
  6  7  1  0  0  0
  6  8  2  0  0  0
M  CHG 1  13   1
M  END
> <minimizedAffinity>
-6.20037

$$$$
../data/sim29_sdf/CHEMBL1462.pdb


 11 11  0  0  0  0  0  0  0  0999 V2000
   68.0066   47.6986   57.3436 N   0  0  0  0  0  0  0  0  0  0  0  0
   68.4494   47.7797   55.9939 C   0  0  0  0  0  0  0  0  0  0  0  0
   68.2981   46.6999   55.1493 C   0  0  0  0  0  0  0  0  0  0  0  0
   68.7304   46.7856   53.8416 C   0  0  0  0  0  0  0  0  0  0  0  0
   69.3156   47.9290   53.3447 C   0  0  0  0  0  0  0  0  0  0  0  0
   69.4585   49.0020   54.2085 C   0  0  0  0  0  0  0  0  0  0  0  0
   69.0308   48.9289   55.5178 C   0  0  0  0  0  0  0  0  0  0  0  0
   69.1873   50.0305   56.3745 O   0  0  0  0  0  0  0  0  0  0  0  0
   69.7785   48.0447   51.9718 C   0  0  0  0  0  0  0  0  0  0  0  0
   69.9114   47.0398   51.2378 O   0  0  0  0  0  0  0  0  0  0  0  0
   70.0810   49.2831   51.4513 O   0  0  0  0  0  0  0  0  0  0  0  0
  1  2  1  0  0  0
  2  3  2  0  0  0
  2  7  1  0  0  0
  3  4  1  0  0  0
  4  5  2  0  0  0
  5  9  1  0  0  0
  5  6  1  0  0  0
  9 10  2  0  0  0
  9 11  1  0  0  0
  6  7  2  0  0  0
  7  8  1  0  0  0
M  END
> <minimizedAffinity>
-5.95051

$$$$
../data/sim29_sdf/CHEMBL3273169.pdb


 12 12  0  0  0  0  0  0  0  0999 V2000
   68.7860   47.7653   54.7602 C   0  0  0  0  0  0  0  0  0  0  0  0
   68.9998   49.1249   54.7458 C   0  0  0  0  0  0  0  0  0  0  0  0
   69.3720   49.7232   53.5705 C   0  0  0  0  0  0  0  0  0  0  0  0
   69.5462   49.0294   52.3903 C   0  0  0  0  0  0  0  0  0  0  0  0
   69.9292   49.6789   51.2021 O   0  0  0  0  0  0  0  0  0  0  0  0
   69.3270   47.6745   52.4292 C   0  0  0  0  0  0  0  0  0  0  0  0
   69.4807   46.9044   51.2824 O   0  0  0  0  0  0  0  0  0  0  0  0
   68.9552   47.0624   53.5951 C   0  0  0  0  0  0  0  0  0  0  0  0
   68.3830   47.1229   56.0370 C   0  0  0  0  0  0  0  0  0  0  0  0
   69.3159   46.1654   56.4298 O   0  0  0  0  0  0  0  0  0  0  0  0
   66.9139   48.2828   57.6219 N   0  0  0  0  0  0  0  0  0  0  0  0
   68.2301   48.2221   57.0630 C   0  0  0  0  0  0  0  0  0  0  0  0
 11 12  1  0  0  0
 12  9  1  0  0  0
  9 10  1  0  0  0
  9  1  1  0  0  0
  1  2  2  0  0  0
  1  8  1  0  0  0
  2  3  1  0  0  0
  3  4  2  0  0  0
  4  5  1  0  0  0
  4  6  1  0  0  0
  6  7  1  0  0  0
  6  8  2  0  0  0
M  CHG 1  11   1
M  END
> <minimizedAffinity>
-5.97138

$$$$
../data/sim29_sdf/CHEMBL1437.pdb


 12 12  0  0  0  0  0  0  0  0999 V2000
   69.3522   47.9540   53.5619 C   0  0  0  0  0  0  0  0  0  0  0  0
   69.0089   47.8122   52.2436 C   0  0  0  0  0  0  0  0  0  0  0  0
   68.2690   46.7361   51.7781 C   0  0  0  0  0  0  0  0  0  0  0  0
   67.8589   45.7662   52.6728 C   0  0  0  0  0  0  0  0  0  0  0  0
   67.1267   44.6871   52.2531 O   0  0  0  0  0  0  0  0  0  0  0  0
   68.1944   45.8861   54.0166 C   0  0  0  0  0  0  0  0  0  0  0  0
   67.7741   44.8998   54.9059 O   0  0  0  0  0  0  0  0  0  0  0  0
   68.9406   46.9828   54.4460 C   0  0  0  0  0  0  0  0  0  0  0  0
   70.1469   49.1233   54.0158 C   0  0  0  0  0  0  0  0  0  0  0  0
   71.2396   49.2280   53.1536 O   0  0  0  0  0  0  0  0  0  0  0  0
   70.1374   51.3558   53.1581 N   0  0  0  0  0  0  0  0  0  0  0  0
   69.3369   50.4109   53.8990 C   0  0  0  0  0  0  0  0  0  0  0  0
 11 12  1  0  0  0
 12  9  1  0  0  0
  9 10  1  0  0  0
  9  1  1  0  0  0
  1  2  2  0  0  0
  1  8  1  0  0  0
  2  3  1  0  0  0
  3  4  2  0  0  0
  4  5  1  0  0  0
  4  6  1  0  0  0
  6  7  1  0  0  0
  6  8  2  0  0  0
M  CHG 1  11   1
M  END
> <minimizedAffinity>
-5.97806

$$$$
../data/sim29_sdf/CHEMBL270197.pdb


  9  9  0  0  0  0  0  0  0  0999 V2000
   70.8287   49.4502   53.6728 N   0  0  0  0  0  0  0  0  0  0  0  0
   69.9056   48.3914   53.3903 C   0  0  0  0  0  0  0  0  0  0  0  0
   69.1420   47.8154   54.3829 C   0  0  0  0  0  0  0  0  0  0  0  0
   68.2539   46.7964   54.1068 C   0  0  0  0  0  0  0  0  0  0  0  0
   68.0784   46.2971   52.8330 C   0  0  0  0  0  0  0  0  0  0  0  0
   67.1817   45.2705   52.5620 O   0  0  0  0  0  0  0  0  0  0  0  0
   68.8394   46.8701   51.8398 C   0  0  0  0  0  0  0  0  0  0  0  0
   69.7451   47.9064   52.1115 C   0  0  0  0  0  0  0  0  0  0  0  0
   70.4909   48.4583   51.0940 O   0  0  0  0  0  0  0  0  0  0  0  0
  1  2  1  0  0  0
  2  3  2  0  0  0
  2  8  1  0  0  0
  3  4  1  0  0  0
  4  5  2  0  0  0
  5  6  1  0  0  0
  5  7  1  0  0  0
  7  8  2  0  0  0
  8  9  1  0  0  0
M  END
> <minimizedAffinity>
-5.60523

$$$$
../data/sim29_sdf/CHEMBL3248963.pdb


 12 12  0  0  0  0  0  0  0  0999 V2000
   69.3349   48.0293   53.2830 C   0  0  0  0  0  0  0  0  0  0  0  0
   68.8607   47.0298   52.4643 C   0  0  0  0  0  0  0  0  0  0  0  0
   68.3102   45.8739   52.9814 C   0  0  0  0  0  0  0  0  0  0  0  0
   68.2412   45.7326   54.3685 C   0  0  0  0  0  0  0  0  0  0  0  0
   67.6960   44.5876   54.8729 O   0  0  0  0  0  0  0  0  0  0  0  0
   68.7080   46.7177   55.2105 C   0  0  0  0  0  0  0  0  0  0  0  0
   68.6201   46.5385   56.5838 O   0  0  0  0  0  0  0  0  0  0  0  0
   69.2550   47.8680   54.6478 C   0  0  0  0  0  0  0  0  0  0  0  0
   69.9232   49.2667   52.7383 C   0  0  0  0  0  0  0  0  0  0  0  0
   69.7902   49.3307   51.3519 O   0  0  0  0  0  0  0  0  0  0  0  0
   70.3980   51.4565   53.5761 N   0  0  0  0  0  0  0  0  0  0  0  0
   69.3496   50.5083   53.3427 C   0  0  0  0  0  0  0  0  0  0  0  0
 11 12  1  0  0  0
 12  9  1  0  0  0
  9 10  1  0  0  0
  9  1  1  0  0  0
  1  2  2  0  0  0
  1  8  1  0  0  0
  2  3  1  0  0  0
  3  4  2  0  0  0
  4  5  1  0  0  0
  4  6  1  0  0  0
  6  7  1  0  0  0
  6  8  2  0  0  0
M  CHG 1  11   1
M  END
> <minimizedAffinity>
-6.02957

$$$$
../data/sim29_sdf/CHEMBL14927.pdb


 22 23  0  0  0  0  0  0  0  0999 V2000
   69.7059   48.8767   56.4208 C   0  0  0  0  0  0  0  0  0  0  0  0
   69.3909   48.3556   55.0498 C   0  0  0  0  0  0  0  0  0  0  0  0
   68.5351   47.2887   54.9036 C   0  0  0  0  0  0  0  0  0  0  0  0
   68.2255   46.7849   53.6359 C   0  0  0  0  0  0  0  0  0  0  0  0
   68.7787   47.3545   52.5138 C   0  0  0  0  0  0  0  0  0  0  0  0
   68.4635   46.8449   51.2584 O   0  0  0  0  0  0  0  0  0  0  0  0
   69.6364   48.4216   52.6453 C   0  0  0  0  0  0  0  0  0  0  0  0
   70.2000   49.0022   51.4883 N   0  0  0  0  0  0  0  0  0  0  0  0
   69.9339   48.9122   53.9228 C   0  0  0  0  0  0  0  0  0  0  0  0
   70.6674   47.2692   58.0027 C   0  0  0  0  0  0  0  0  0  0  0  0
   69.3529   47.8094   57.3865 C   0  0  0  0  0  0  0  0  0  0  0  0
   69.0081   50.1700   56.5928 C   0  0  0  0  0  0  0  0  0  0  0  0
   70.0345   51.2783   56.6260 C   0  0  0  0  0  0  0  0  0  0  0  0
   69.7217   52.5270   56.1497 C   0  0  0  0  0  0  0  0  0  0  0  0
   70.6509   53.5703   56.1682 C   0  0  0  0  0  0  0  0  0  0  0  0
   71.9092   53.3327   56.6775 C   0  0  0  0  0  0  0  0  0  0  0  0
   72.8887   54.3160   56.7314 O   0  0  0  0  0  0  0  0  0  0  0  0
   72.2512   52.0743   57.1668 C   0  0  0  0  0  0  0  0  0  0  0  0
   73.5330   51.8024   57.6949 N   0  0  0  0  0  0  0  0  0  0  0  0
   71.2894   51.0594   57.1286 C   0  0  0  0  0  0  0  0  0  0  0  0
   68.1486   50.3586   57.7762 C   0  0  0  0  0  0  0  0  0  0  0  0
   66.7659   50.8811   57.5598 C   0  0  0  0  0  0  0  0  0  0  0  0
 10 11  1  0  0  0
  1 11  1  0  0  0
  1  2  1  0  0  0
  1 12  1  0  0  0
  2  3  2  0  0  0
  2  9  1  0  0  0
  3  4  1  0  0  0
  4  5  2  0  0  0
  5  6  1  0  0  0
  5  7  1  0  0  0
  7  8  1  0  0  0
  7  9  2  0  0  0
 12 21  1  0  0  0
 12 13  1  0  0  0
 21 22  1  0  0  0
 13 14  2  0  0  0
 13 20  1  0  0  0
 14 15  1  0  0  0
 15 16  2  0  0  0
 16 17  1  0  0  0
 16 18  1  0  0  0
 18 19  1  0  0  0
 18 20  2  0  0  0
M  END
> <minimizedAffinity>
-8.01688

$$$$
../data/sim29_sdf/CHEMBL1256471.pdb


 13 13  0  0  0  0  0  0  0  0999 V2000
   69.3389   47.9626   53.5238 C   0  0  0  0  0  0  0  0  0  0  0  0
   68.9703   47.7856   52.1929 C   0  0  0  0  0  0  0  0  0  0  0  0
   68.2441   46.7212   51.7596 C   0  0  0  0  0  0  0  0  0  0  0  0
   67.8374   45.7559   52.6526 C   0  0  0  0  0  0  0  0  0  0  0  0
   67.0857   44.6612   52.1906 O   0  0  0  0  0  0  0  0  0  0  0  0
   68.1792   45.8911   53.9809 C   0  0  0  0  0  0  0  0  0  0  0  0
   67.7570   44.9033   54.8640 O   0  0  0  0  0  0  0  0  0  0  0  0
   68.9245   46.9905   54.3984 C   0  0  0  0  0  0  0  0  0  0  0  0
   70.1119   49.1517   53.8740 C   0  0  0  0  0  0  0  0  0  0  0  0
   71.3084   49.2326   53.1463 O   0  0  0  0  0  0  0  0  0  0  0  0
   68.8571   50.8938   55.1614 C   0  0  0  0  0  0  0  0  0  0  0  0
   69.4081   50.4557   53.8195 C   0  0  0  0  0  0  0  0  0  0  0  0
   70.1926   51.4824   53.1970 N   0  0  0  0  0  0  0  0  0  0  0  0
 12 11  1  0  0  0
 12 13  1  0  0  0
 12  9  1  0  0  0
  9 10  1  0  0  0
  9  1  1  0  0  0
  1  2  2  0  0  0
  1  8  1  0  0  0
  2  3  1  0  0  0
  3  4  2  0  0  0
  4  5  1  0  0  0
  4  6  1  0  0  0
  6  7  1  0  0  0
  6  8  2  0  0  0
M  CHG 1  13   1
M  END
> <minimizedAffinity>
-6.35646

$$$$
../data/sim29_sdf/CHEMBL3637795.pdb


 20 21  0  0  0  0  0  0  0  0999 V2000
   69.7835   49.8587   53.5079 C   0  0  0  0  0  0  0  0  0  0  0  0
   69.7210   49.8727   52.1311 O   0  0  0  0  0  0  0  0  0  0  0  0
   68.1208   44.8336   55.4935 N   0  0  0  0  0  0  0  0  0  0  0  0
   68.5239   46.0790   54.9577 C   0  0  0  0  0  0  0  0  0  0  0  0
   69.0455   47.0239   55.8125 C   0  0  0  0  0  0  0  0  0  0  0  0
   69.4473   48.2434   55.3223 C   0  0  0  0  0  0  0  0  0  0  0  0
   69.3357   48.5340   53.9850 C   0  0  0  0  0  0  0  0  0  0  0  0
   68.8121   47.5780   53.1446 C   0  0  0  0  0  0  0  0  0  0  0  0
   68.4010   46.3491   53.6005 C   0  0  0  0  0  0  0  0  0  0  0  0
   67.8715   45.3681   52.7868 O   0  0  0  0  0  0  0  0  0  0  0  0
   71.0874   50.2938   54.0754 C   0  0  0  0  0  0  0  0  0  0  0  0
   71.3299   51.6718   54.1460 N   0  0  0  0  0  0  0  0  0  0  0  0
   71.6364   52.2589   55.3828 C   0  0  0  0  0  0  0  0  0  0  0  0
   70.5088   52.9567   56.0983 C   0  0  0  0  0  0  0  0  0  0  0  0
   69.5783   52.0060   56.7560 C   0  0  0  0  0  0  0  0  0  0  0  0
   70.0514   51.1591   57.7514 C   0  0  0  0  0  0  0  0  0  0  0  0
   69.2258   50.2604   58.3949 C   0  0  0  0  0  0  0  0  0  0  0  0
   67.8885   50.1677   58.0715 C   0  0  0  0  0  0  0  0  0  0  0  0
   67.4089   51.0031   57.0859 C   0  0  0  0  0  0  0  0  0  0  0  0
   68.2438   51.9066   56.4409 C   0  0  0  0  0  0  0  0  0  0  0  0
  3  4  1  0  0  0
  4  5  2  0  0  0
  4  9  1  0  0  0
  5  6  1  0  0  0
  6  7  2  0  0  0
  7  1  1  0  0  0
  7  8  1  0  0  0
  1  2  1  0  0  0
  1 11  1  0  0  0
 11 12  1  0  0  0
 12 13  1  0  0  0
 13 14  1  0  0  0
 14 15  1  0  0  0
 15 16  2  0  0  0
 15 20  1  0  0  0
 16 17  1  0  0  0
 17 18  2  0  0  0
 18 19  1  0  0  0
 19 20  2  0  0  0
  8  9  2  0  0  0
  9 10  1  0  0  0
M  CHG 1  12   1
M  END
> <minimizedAffinity>
-7.00752

$$$$
