../data/sim29_sdf/CHEMBL677.pdb


 13 13  0  0  0  0  0  0  0  0999 V2000
   69.1251   49.8732   54.5995 C   0  0  0  0  0  0  0  0  0  0  0  0
   69.1276   48.4964   54.7881 C   0  0  0  0  0  0  0  0  0  0  0  0
   69.3085   47.5984   53.7688 C   0  0  0  0  0  0  0  0  0  0  0  0
   69.4978   48.0581   52.4885 C   0  0  0  0  0  0  0  0  0  0  0  0
   69.6854   47.1878   51.4187 O   0  0  0  0  0  0  0  0  0  0  0  0
   69.4998   49.4076   52.2750 C   0  0  0  0  0  0  0  0  0  0  0  0
   69.6880   49.8892   51.0003 O   0  0  0  0  0  0  0  0  0  0  0  0
   69.3159   50.3171   53.3160 C   0  0  0  0  0  0  0  0  0  0  0  0
   68.9272   50.6948   55.7932 C   0  0  0  0  0  0  0  0  0  0  0  0
   68.2575   51.8811   55.4043 O   0  0  0  0  0  0  0  0  0  0  0  0
   67.0966   50.9367   57.3751 C   0  0  0  0  0  0  0  0  0  0  0  0
   68.2848   50.0585   56.9604 C   0  0  0  0  0  0  0  0  0  0  0  0
   69.1784   50.0322   58.0888 N   0  0  0  0  0  0  0  0  0  0  0  0
 12 11  1  0  0  0
 12 13  1  0  0  0
 12  9  1  0  0  0
  9 10  1  0  0  0
  9  1  1  0  0  0
  1  2  2  0  0  0
  1  8  1  0  0  0
  2  3  1  0  0  0
  3  4  2  0  0  0
  4  5  1  0  0  0
  4  6  1  0  0  0
  6  7  1  0  0  0
  6  8  2  0  0  0
M  CHG 1  13   1
M  END
> <minimizedAffinity>
-6.23207

$$$$
../data/sim29_sdf/CHEMBL155014.pdb


 22 23  0  0  0  0  0  0  0  0999 V2000
   70.5966   50.2272   56.9481 C   0  0  0  0  0  0  0  0  0  0  0  0
   71.2999   51.5023   56.4877 C   0  0  0  0  0  0  0  0  0  0  0  0
   70.6236   52.6945   56.5036 C   0  0  0  0  0  0  0  0  0  0  0  0
   71.3003   53.8471   56.0827 C   0  0  0  0  0  0  0  0  0  0  0  0
   72.6147   53.8154   55.6573 C   0  0  0  0  0  0  0  0  0  0  0  0
   73.2800   55.0030   55.2342 N   0  0  0  0  0  0  0  0  0  0  0  0
   73.2588   52.5963   55.6567 C   0  0  0  0  0  0  0  0  0  0  0  0
   74.5838   52.4842   55.2426 O   0  0  0  0  0  0  0  0  0  0  0  0
   72.5736   51.4420   56.0802 C   0  0  0  0  0  0  0  0  0  0  0  0
   71.4308   48.0234   57.9520 C   0  0  0  0  0  0  0  0  0  0  0  0
   71.6171   49.2039   57.0450 C   0  0  0  0  0  0  0  0  0  0  0  0
   69.2880   50.1223   56.3134 C   0  0  0  0  0  0  0  0  0  0  0  0
   69.2985   49.2806   55.0399 C   0  0  0  0  0  0  0  0  0  0  0  0
   69.0223   47.9321   55.0580 C   0  0  0  0  0  0  0  0  0  0  0  0
   69.0279   47.1878   53.8781 C   0  0  0  0  0  0  0  0  0  0  0  0
   69.3102   47.7885   52.6723 C   0  0  0  0  0  0  0  0  0  0  0  0
   69.3183   47.0358   51.4656 N   0  0  0  0  0  0  0  0  0  0  0  0
   69.5896   49.1373   52.6278 C   0  0  0  0  0  0  0  0  0  0  0  0
   69.8783   49.7565   51.4040 O   0  0  0  0  0  0  0  0  0  0  0  0
   69.5729   49.8310   53.8160 C   0  0  0  0  0  0  0  0  0  0  0  0
   68.0141   49.9963   57.0125 C   0  0  0  0  0  0  0  0  0  0  0  0
   67.1227   51.0778   57.3829 C   0  0  0  0  0  0  0  0  0  0  0  0
 10 11  1  0  0  0
  1 11  1  0  0  0
  1  2  1  0  0  0
  1 12  1  0  0  0
  2  3  2  0  0  0
  2  9  1  0  0  0
  3  4  1  0  0  0
  4  5  2  0  0  0
  5  6  1  0  0  0
  5  7  1  0  0  0
  7  8  1  0  0  0
  7  9  2  0  0  0
 12 21  1  0  0  0
 12 13  1  0  0  0
 21 22  1  0  0  0
 13 14  2  0  0  0
 13 20  1  0  0  0
 14 15  1  0  0  0
 15 16  2  0  0  0
 16 17  1  0  0  0
 16 18  1  0  0  0
 18 19  1  0  0  0
 18 20  2  0  0  0
M  END
> <minimizedAffinity>
-7.98527

$$$$
../data/sim29_sdf/CHEMBL2062273.pdb


 12 12  0  0  0  0  0  0  0  0999 V2000
   69.1006   48.2070   54.7506 C   0  0  0  0  0  0  0  0  0  0  0  0
   69.1585   49.5858   54.6042 C   0  0  0  0  0  0  0  0  0  0  0  0
   69.3638   50.1311   53.3649 C   0  0  0  0  0  0  0  0  0  0  0  0
   69.5140   49.3188   52.2659 C   0  0  0  0  0  0  0  0  0  0  0  0
   69.7218   49.8456   51.0065 O   0  0  0  0  0  0  0  0  0  0  0  0
   69.4520   47.9401   52.4339 C   0  0  0  0  0  0  0  0  0  0  0  0
   69.6080   47.1544   51.2995 O   0  0  0  0  0  0  0  0  0  0  0  0
   69.2457   47.3651   53.6701 C   0  0  0  0  0  0  0  0  0  0  0  0
   68.8773   47.6437   56.1057 C   0  0  0  0  0  0  0  0  0  0  0  0
   68.0567   46.4990   56.0200 O   0  0  0  0  0  0  0  0  0  0  0  0
   67.0190   48.1811   57.4900 N   0  0  0  0  0  0  0  0  0  0  0  0
   68.3260   48.6480   57.0689 C   0  0  0  0  0  0  0  0  0  0  0  0
 11 12  1  0  0  0
 12  9  1  0  0  0
  9 10  1  0  0  0
  9  1  1  0  0  0
  1  2  2  0  0  0
  1  8  1  0  0  0
  2  3  1  0  0  0
  3  4  2  0  0  0
  4  5  1  0  0  0
  4  6  1  0  0  0
  6  7  1  0  0  0
  6  8  2  0  0  0
M  CHG 1  11   1
M  END
> <minimizedAffinity>
-6.13541

$$$$
../data/sim29_sdf/CHEMBL288787.pdb


 11 11  0  0  0  0  0  0  0  0999 V2000
   69.0021   47.8197   54.7969 C   0  0  0  0  0  0  0  0  0  0  0  0
   69.1093   49.1847   54.7832 C   0  0  0  0  0  0  0  0  0  0  0  0
   69.3619   49.8421   53.5945 C   0  0  0  0  0  0  0  0  0  0  0  0
   69.5092   49.1443   52.4093 C   0  0  0  0  0  0  0  0  0  0  0  0
   69.7656   49.7954   51.1959 O   0  0  0  0  0  0  0  0  0  0  0  0
   69.4054   47.7712   52.4031 C   0  0  0  0  0  0  0  0  0  0  0  0
   69.5476   47.0247   51.2296 O   0  0  0  0  0  0  0  0  0  0  0  0
   69.1536   47.1403   53.6024 C   0  0  0  0  0  0  0  0  0  0  0  0
   67.7099   47.7524   56.8558 N   0  0  0  0  0  0  0  0  0  0  0  0
   68.7322   47.1058   56.0608 C   0  0  0  0  0  0  0  0  0  0  0  0
   68.3830   45.7694   55.8611 O   0  0  0  0  0  0  0  0  0  0  0  0
 10  9  1  0  0  0
 10 11  1  0  0  0
 10  1  1  0  0  0
  1  2  2  0  0  0
  1  8  1  0  0  0
  2  3  1  0  0  0
  3  4  2  0  0  0
  4  5  1  0  0  0
  4  6  1  0  0  0
  6  7  1  0  0  0
  6  8  2  0  0  0
M  CHG 1   9   1
M  END
> <minimizedAffinity>
-6.28728

$$$$
../data/sim29_sdf/CHEMBL432.pdb


 12 12  0  0  0  0  0  0  0  0999 V2000
   68.8565   47.8455   54.7983 C   0  0  0  0  0  0  0  0  0  0  0  0
   69.0359   49.2086   54.7302 C   0  0  0  0  0  0  0  0  0  0  0  0
   69.3679   49.8507   53.5431 C   0  0  0  0  0  0  0  0  0  0  0  0
   69.5225   49.1044   52.3947 C   0  0  0  0  0  0  0  0  0  0  0  0
   69.8540   49.7127   51.1897 O   0  0  0  0  0  0  0  0  0  0  0  0
   69.3490   47.7367   52.4339 C   0  0  0  0  0  0  0  0  0  0  0  0
   69.5111   47.0051   51.2602 O   0  0  0  0  0  0  0  0  0  0  0  0
   69.0230   47.1518   53.6284 C   0  0  0  0  0  0  0  0  0  0  0  0
   68.5053   47.2345   56.0945 C   0  0  0  0  0  0  0  0  0  0  0  0
   68.5038   45.8333   56.0020 O   0  0  0  0  0  0  0  0  0  0  0  0
   69.8122   46.3892   57.8997 N   0  0  0  0  0  0  0  0  0  0  0  0
   69.4372   47.6112   57.2062 C   0  0  0  0  0  0  0  0  0  0  0  0
 11 12  1  0  0  0
 12  9  1  0  0  0
  9 10  1  0  0  0
  9  1  1  0  0  0
  1  2  2  0  0  0
  1  8  1  0  0  0
  2  3  1  0  0  0
  3  4  2  0  0  0
  4  5  1  0  0  0
  4  6  1  0  0  0
  6  7  1  0  0  0
  6  8  2  0  0  0
M  CHG 1  11   1
M  END
> <minimizedAffinity>
-6.03275

$$$$
../data/sim29_sdf/CHEMBL2062274.pdb


 12 12  0  0  0  0  0  0  0  0999 V2000
   69.1175   48.1665   54.7959 C   0  0  0  0  0  0  0  0  0  0  0  0
   69.1711   49.5331   54.6403 C   0  0  0  0  0  0  0  0  0  0  0  0
   69.3622   50.1005   53.3931 C   0  0  0  0  0  0  0  0  0  0  0  0
   69.5066   49.3198   52.2546 C   0  0  0  0  0  0  0  0  0  0  0  0
   69.6989   49.9007   50.9981 O   0  0  0  0  0  0  0  0  0  0  0  0
   69.4509   47.9513   52.4235 C   0  0  0  0  0  0  0  0  0  0  0  0
   69.5957   47.1585   51.2736 O   0  0  0  0  0  0  0  0  0  0  0  0
   69.2598   47.3852   53.6700 C   0  0  0  0  0  0  0  0  0  0  0  0
   68.9165   47.5339   56.1014 C   0  0  0  0  0  0  0  0  0  0  0  0
   67.9361   46.5444   55.9436 O   0  0  0  0  0  0  0  0  0  0  0  0
   67.0147   48.1872   57.4724 N   0  0  0  0  0  0  0  0  0  0  0  0
   68.3769   48.5293   57.1316 C   0  0  0  0  0  0  0  0  0  0  0  0
 11 12  1  0  0  0
 12  9  1  0  0  0
  9 10  1  0  0  0
  9  1  1  0  0  0
  1  2  2  0  0  0
  1  8  1  0  0  0
  2  3  1  0  0  0
  3  4  2  0  0  0
  4  5  1  0  0  0
  4  6  1  0  0  0
  6  7  1  0  0  0
  6  8  2  0  0  0
M  CHG 1  11   1
M  END
> <minimizedAffinity>
-6.12657

$$$$
../data/sim29_sdf/CHEMBL1320902.pdb


 13 13  0  0  0  0  0  0  0  0999 V2000
   69.2944   47.9167   53.4936 C   0  0  0  0  0  0  0  0  0  0  0  0
   68.9551   47.7549   52.1442 C   0  0  0  0  0  0  0  0  0  0  0  0
   68.2312   46.6559   51.7581 C   0  0  0  0  0  0  0  0  0  0  0  0
   67.8183   45.6926   52.6508 C   0  0  0  0  0  0  0  0  0  0  0  0
   67.0848   44.5817   52.2469 O   0  0  0  0  0  0  0  0  0  0  0  0
   68.1688   45.8816   53.9662 C   0  0  0  0  0  0  0  0  0  0  0  0
   67.7670   44.9230   54.9044 O   0  0  0  0  0  0  0  0  0  0  0  0
   68.9036   46.9812   54.4128 C   0  0  0  0  0  0  0  0  0  0  0  0
   70.0644   49.1231   53.9140 C   0  0  0  0  0  0  0  0  0  0  0  0
   71.1979   49.1271   53.0823 O   0  0  0  0  0  0  0  0  0  0  0  0
   68.8984   50.9307   55.1725 C   0  0  0  0  0  0  0  0  0  0  0  0
   69.3104   50.4016   53.7930 C   0  0  0  0  0  0  0  0  0  0  0  0
   70.2018   51.4519   53.2549 N   0  0  0  0  0  0  0  0  0  0  0  0
 12 11  1  0  0  0
 12 13  1  0  0  0
 12  9  1  0  0  0
  9 10  1  0  0  0
  9  1  1  0  0  0
  1  2  2  0  0  0
  1  8  1  0  0  0
  2  3  1  0  0  0
  3  4  2  0  0  0
  4  5  1  0  0  0
  4  6  1  0  0  0
  6  7  1  0  0  0
  6  8  2  0  0  0
M  CHG 1  13   1
M  END
> <minimizedAffinity>
-6.33302

$$$$
../data/sim29_sdf/CHEMBL764.pdb


 13 13  0  0  0  0  0  0  0  0999 V2000
   69.0515   47.8411   53.4716 C   0  0  0  0  0  0  0  0  0  0  0  0
   68.5154   46.9026   52.6155 C   0  0  0  0  0  0  0  0  0  0  0  0
   68.0884   45.7191   53.1796 C   0  0  0  0  0  0  0  0  0  0  0  0
   68.1942   45.4869   54.5374 C   0  0  0  0  0  0  0  0  0  0  0  0
   67.7590   44.2948   55.0759 O   0  0  0  0  0  0  0  0  0  0  0  0
   68.7301   46.4220   55.4005 C   0  0  0  0  0  0  0  0  0  0  0  0
   68.8252   46.1634   56.7614 O   0  0  0  0  0  0  0  0  0  0  0  0
   69.1558   47.6041   54.8283 C   0  0  0  0  0  0  0  0  0  0  0  0
   69.5330   49.1284   52.9546 C   0  0  0  0  0  0  0  0  0  0  0  0
   70.4402   48.8531   51.9121 O   0  0  0  0  0  0  0  0  0  0  0  0
   69.4785   51.3530   53.9397 C   0  0  0  0  0  0  0  0  0  0  0  0
   70.1737   50.0012   54.0002 C   0  0  0  0  0  0  0  0  0  0  0  0
   71.5919   50.0957   53.8741 N   0  0  0  0  0  0  0  0  0  0  0  0
 12 11  1  0  0  0
 12 13  1  0  0  0
 12  9  1  0  0  0
  9 10  1  0  0  0
  9  1  1  0  0  0
  1  2  2  0  0  0
  1  8  1  0  0  0
  2  3  1  0  0  0
  3  4  2  0  0  0
  4  5  1  0  0  0
  4  6  1  0  0  0
  6  7  1  0  0  0
  6  8  2  0  0  0
M  CHG 1  13   1
M  END
> <minimizedAffinity>
-6.43952

$$$$
../data/sim29_sdf/CHEMBL1434513.pdb


 12 12  0  0  0  0  0  0  0  0999 V2000
   69.0333   47.7716   54.6842 C   0  0  0  0  0  0  0  0  0  0  0  0
   69.0511   49.1520   54.7160 C   0  0  0  0  0  0  0  0  0  0  0  0
   69.2943   49.8521   53.5540 C   0  0  0  0  0  0  0  0  0  0  0  0
   69.5231   49.2039   52.3439 C   0  0  0  0  0  0  0  0  0  0  0  0
   69.7677   49.9117   51.1730 O   0  0  0  0  0  0  0  0  0  0  0  0
   69.5027   47.8259   52.3239 C   0  0  0  0  0  0  0  0  0  0  0  0
   69.7312   47.1616   51.1160 O   0  0  0  0  0  0  0  0  0  0  0  0
   69.2598   47.1320   53.4895 C   0  0  0  0  0  0  0  0  0  0  0  0
   68.7767   46.9689   55.9078 C   0  0  0  0  0  0  0  0  0  0  0  0
   67.7270   47.4511   56.6613 O   0  0  0  0  0  0  0  0  0  0  0  0
   68.9233   44.6681   56.5104 N   0  0  0  0  0  0  0  0  0  0  0  0
   68.5351   45.5408   55.4494 C   0  0  0  0  0  0  0  0  0  0  0  0
 11 12  1  0  0  0
 12  9  1  0  0  0
  9 10  1  0  0  0
  9  1  1  0  0  0
  1  2  2  0  0  0
  1  8  1  0  0  0
  2  3  1  0  0  0
  3  4  2  0  0  0
  4  5  1  0  0  0
  4  6  1  0  0  0
  6  7  1  0  0  0
  6  8  2  0  0  0
M  CHG 1  11   1
M  END
> <minimizedAffinity>
-6.13196

$$$$
../data/sim29_sdf/CHEMBL1734806.pdb


 12 12  0  0  0  0  0  0  0  0999 V2000
   69.1014   48.1328   54.8225 C   0  0  0  0  0  0  0  0  0  0  0  0
   69.1638   49.5250   54.6460 C   0  0  0  0  0  0  0  0  0  0  0  0
   69.3703   50.0677   53.3991 C   0  0  0  0  0  0  0  0  0  0  0  0
   69.5243   49.2946   52.2685 C   0  0  0  0  0  0  0  0  0  0  0  0
   69.7327   49.8245   51.0013 O   0  0  0  0  0  0  0  0  0  0  0  0
   69.4655   47.9307   52.4248 C   0  0  0  0  0  0  0  0  0  0  0  0
   69.6172   47.1344   51.3071 O   0  0  0  0  0  0  0  0  0  0  0  0
   69.2562   47.3698   53.6942 C   0  0  0  0  0  0  0  0  0  0  0  0
   68.8865   47.5675   56.1728 C   0  0  0  0  0  0  0  0  0  0  0  0
   68.0164   46.4616   55.9693 O   0  0  0  0  0  0  0  0  0  0  0  0
   66.9274   48.2138   57.5386 N   0  0  0  0  0  0  0  0  0  0  0  0
   68.2734   48.4828   57.1610 C   0  0  0  0  0  0  0  0  0  0  0  0
 11 12  1  0  0  0
 12  9  1  0  0  0
  9 10  1  0  0  0
  9  1  1  0  0  0
  1  2  2  0  0  0
  1  8  1  0  0  0
  2  3  1  0  0  0
  3  4  2  0  0  0
  4  5  1  0  0  0
  4  6  1  0  0  0
  6  7  1  0  0  0
  6  8  2  0  0  0
M  CHG 1  11   1
M  END
> <minimizedAffinity>
-6.13804

$$$$
../data/sim29_sdf/CHEMBL1356607.pdb


 12 12  0  0  0  0  0  0  0  0999 V2000
   69.0894   48.0198   54.7458 C   0  0  0  0  0  0  0  0  0  0  0  0
   69.1329   49.3845   54.6602 C   0  0  0  0  0  0  0  0  0  0  0  0
   69.3341   50.0249   53.4640 C   0  0  0  0  0  0  0  0  0  0  0  0
   69.4997   49.2817   52.2968 C   0  0  0  0  0  0  0  0  0  0  0  0
   69.7020   49.9491   51.0993 O   0  0  0  0  0  0  0  0  0  0  0  0
   69.4571   47.9143   52.3804 C   0  0  0  0  0  0  0  0  0  0  0  0
   69.6175   47.1240   51.2466 O   0  0  0  0  0  0  0  0  0  0  0  0
   69.2534   47.2968   53.5958 C   0  0  0  0  0  0  0  0  0  0  0  0
   68.8706   47.2722   56.0300 C   0  0  0  0  0  0  0  0  0  0  0  0
   67.6022   47.5796   56.5397 O   0  0  0  0  0  0  0  0  0  0  0  0
   69.5218   45.1792   56.9538 N   0  0  0  0  0  0  0  0  0  0  0  0
   68.8939   45.7910   55.7716 C   0  0  0  0  0  0  0  0  0  0  0  0
 11 12  1  0  0  0
 12  9  1  0  0  0
  9 10  1  0  0  0
  9  1  1  0  0  0
  1  2  2  0  0  0
  1  8  1  0  0  0
  2  3  1  0  0  0
  3  4  2  0  0  0
  4  5  1  0  0  0
  4  6  1  0  0  0
  6  7  1  0  0  0
  6  8  2  0  0  0
M  CHG 1  11   1
M  END
> <minimizedAffinity>
-6.04759

$$$$
../data/sim29_sdf/CHEMBL1545498.pdb


 11 11  0  0  0  0  0  0  0  0999 V2000
   68.8960   47.9916   54.9052 C   0  0  0  0  0  0  0  0  0  0  0  0
   69.0638   49.3502   54.7944 C   0  0  0  0  0  0  0  0  0  0  0  0
   69.3788   49.9467   53.5787 C   0  0  0  0  0  0  0  0  0  0  0  0
   69.5260   49.1525   52.4572 C   0  0  0  0  0  0  0  0  0  0  0  0
   69.8420   49.6853   51.2055 O   0  0  0  0  0  0  0  0  0  0  0  0
   69.3517   47.7941   52.6005 C   0  0  0  0  0  0  0  0  0  0  0  0
   69.4996   46.9663   51.4585 N   0  0  0  0  0  0  0  0  0  0  0  0
   69.0400   47.1884   53.7990 C   0  0  0  0  0  0  0  0  0  0  0  0
   69.7848   46.9209   56.9684 C   0  0  0  0  0  0  0  0  0  0  0  0
   68.5584   47.3597   56.2132 C   0  0  0  0  0  0  0  0  0  0  0  0
   67.8021   48.3124   57.1044 C   0  0  0  0  0  0  0  0  0  0  0  0
  9 10  1  0  0  0
 10 11  1  0  0  0
 10  1  1  0  0  0
  1  2  2  0  0  0
  1  8  1  0  0  0
  2  3  1  0  0  0
  3  4  2  0  0  0
  4  5  1  0  0  0
  4  6  1  0  0  0
  6  7  1  0  0  0
  6  8  2  0  0  0
M  END
> <minimizedAffinity>
-5.84701

$$$$
../data/sim29_sdf/CHEMBL2130595.pdb


 12 12  0  0  0  0  0  0  0  0999 V2000
   68.7860   47.3309   54.4714 C   0  0  0  0  0  0  0  0  0  0  0  0
   68.6474   46.5430   53.3394 C   0  0  0  0  0  0  0  0  0  0  0  0
   69.2653   46.9983   52.1853 C   0  0  0  0  0  0  0  0  0  0  0  0
   69.9686   48.1674   52.1875 C   0  0  0  0  0  0  0  0  0  0  0  0
   70.5755   48.5980   51.0195 O   0  0  0  0  0  0  0  0  0  0  0  0
   70.1005   48.9431   53.3160 C   0  0  0  0  0  0  0  0  0  0  0  0
   70.8278   50.1393   53.2943 O   0  0  0  0  0  0  0  0  0  0  0  0
   69.4996   48.5092   54.4584 C   0  0  0  0  0  0  0  0  0  0  0  0
   68.1386   46.8741   55.7214 C   0  0  0  0  0  0  0  0  0  0  0  0
   68.6224   45.6320   56.1277 O   0  0  0  0  0  0  0  0  0  0  0  0
   67.1822   48.1798   57.4664 N   0  0  0  0  0  0  0  0  0  0  0  0
   68.4520   47.8766   56.8109 C   0  0  0  0  0  0  0  0  0  0  0  0
 11 12  1  0  0  0
 12  9  1  0  0  0
  9 10  1  0  0  0
  9  1  1  0  0  0
  1  2  2  0  0  0
  1  8  1  0  0  0
  2  3  1  0  0  0
  3  4  2  0  0  0
  4  5  1  0  0  0
  4  6  1  0  0  0
  6  7  1  0  0  0
  6  8  2  0  0  0
M  CHG 1  11   1
M  END
> <minimizedAffinity>
-6.04731

$$$$
../data/sim29_sdf/CHEMBL18824.pdb


 12 12  0  0  0  0  0  0  0  0999 V2000
   69.1315   48.1932   54.7841 C   0  0  0  0  0  0  0  0  0  0  0  0
   69.1725   49.5695   54.6322 C   0  0  0  0  0  0  0  0  0  0  0  0
   69.3656   50.1352   53.3891 C   0  0  0  0  0  0  0  0  0  0  0  0
   69.5205   49.3271   52.2795 C   0  0  0  0  0  0  0  0  0  0  0  0
   69.7177   49.8367   50.9998 O   0  0  0  0  0  0  0  0  0  0  0  0
   69.4802   47.9661   52.4259 C   0  0  0  0  0  0  0  0  0  0  0  0
   69.6369   47.1385   51.3060 O   0  0  0  0  0  0  0  0  0  0  0  0
   69.2865   47.3953   53.6734 C   0  0  0  0  0  0  0  0  0  0  0  0
   68.9214   47.6178   56.1336 C   0  0  0  0  0  0  0  0  0  0  0  0
   68.0500   46.5306   56.0483 O   0  0  0  0  0  0  0  0  0  0  0  0
   67.0372   48.1666   57.4845 N   0  0  0  0  0  0  0  0  0  0  0  0
   68.3786   48.6234   57.0960 C   0  0  0  0  0  0  0  0  0  0  0  0
 11 12  1  0  0  0
 12  9  1  0  0  0
  9 10  1  0  0  0
  9  1  1  0  0  0
  1  2  2  0  0  0
  1  8  1  0  0  0
  2  3  1  0  0  0
  3  4  2  0  0  0
  4  5  1  0  0  0
  4  6  1  0  0  0
  6  7  1  0  0  0
  6  8  2  0  0  0
M  CHG 1  11   1
M  END
> <minimizedAffinity>
-6.13098

$$$$
../data/sim29_sdf/CHEMBL85811.pdb


 16 17  0  0  0  0  0  0  0  0999 V2000
   70.8135   54.2383   56.2526 N   0  0  0  0  0  0  0  0  0  0  0  0
   70.4864   52.9576   55.7208 C   0  0  0  0  0  0  0  0  0  0  0  0
   69.1671   52.6540   55.4738 C   0  0  0  0  0  0  0  0  0  0  0  0
   68.8458   51.4146   54.9578 C   0  0  0  0  0  0  0  0  0  0  0  0
   69.8109   50.4585   54.6787 C   0  0  0  0  0  0  0  0  0  0  0  0
   71.1309   50.7648   54.9273 C   0  0  0  0  0  0  0  0  0  0  0  0
   71.4636   52.0132   55.4477 C   0  0  0  0  0  0  0  0  0  0  0  0
   72.7803   52.3556   55.7104 O   0  0  0  0  0  0  0  0  0  0  0  0
   69.3996   49.1690   54.1349 C   0  0  0  0  0  0  0  0  0  0  0  0
   68.6375   48.3128   54.8994 C   0  0  0  0  0  0  0  0  0  0  0  0
   68.2274   47.0847   54.4218 C   0  0  0  0  0  0  0  0  0  0  0  0
   68.5684   46.6631   53.1494 C   0  0  0  0  0  0  0  0  0  0  0  0
   68.1303   45.3907   52.6847 N   0  0  0  0  0  0  0  0  0  0  0  0
   69.3282   47.5093   52.3764 C   0  0  0  0  0  0  0  0  0  0  0  0
   69.6636   47.0724   51.0980 O   0  0  0  0  0  0  0  0  0  0  0  0
   69.7323   48.7373   52.8662 C   0  0  0  0  0  0  0  0  0  0  0  0
  1  2  1  0  0  0
  2  3  2  0  0  0
  2  7  1  0  0  0
  3  4  1  0  0  0
  4  5  2  0  0  0
  5  9  1  0  0  0
  5  6  1  0  0  0
  9 10  2  0  0  0
  9 16  1  0  0  0
 10 11  1  0  0  0
 11 12  2  0  0  0
 12 13  1  0  0  0
 12 14  1  0  0  0
 14 15  1  0  0  0
 14 16  2  0  0  0
  6  7  2  0  0  0
  7  8  1  0  0  0
M  END
> <minimizedAffinity>
-6.91898

$$$$
../data/sim29_sdf/CHEMBL2074780.pdb


 13 13  0  0  0  0  0  0  0  0999 V2000
   68.7439   47.6227   53.9956 C   0  0  0  0  0  0  0  0  0  0  0  0
   68.1105   46.6116   53.3144 C   0  0  0  0  0  0  0  0  0  0  0  0
   67.9093   45.3733   53.9279 C   0  0  0  0  0  0  0  0  0  0  0  0
   68.3568   45.1894   55.2175 C   0  0  0  0  0  0  0  0  0  0  0  0
   68.1839   43.9704   55.8823 O   0  0  0  0  0  0  0  0  0  0  0  0
   68.9975   46.1855   55.9272 C   0  0  0  0  0  0  0  0  0  0  0  0
   69.4595   46.0432   57.2156 O   0  0  0  0  0  0  0  0  0  0  0  0
   69.1755   47.3976   55.2829 C   0  0  0  0  0  0  0  0  0  0  0  0
   68.9576   48.9305   53.3528 C   0  0  0  0  0  0  0  0  0  0  0  0
   68.9018   49.9574   54.2899 O   0  0  0  0  0  0  0  0  0  0  0  0
   70.2724   48.7542   51.3418 O   0  0  0  0  0  0  0  0  0  0  0  0
   70.2037   48.9858   52.5621 C   0  0  0  0  0  0  0  0  0  0  0  0
   71.3763   49.3173   53.2247 O   0  0  0  0  0  0  0  0  0  0  0  0
 11 12  2  0  0  0
 12 13  1  0  0  0
 12  9  1  0  0  0
  9 10  1  0  0  0
  9  1  1  0  0  0
  1  2  2  0  0  0
  1  8  1  0  0  0
  2  3  1  0  0  0
  3  4  2  0  0  0
  4  5  1  0  0  0
  4  6  1  0  0  0
  6  7  1  0  0  0
  6  8  2  0  0  0
M  END
> <minimizedAffinity>
-6.34389

$$$$
../data/sim29_sdf/CHEMBL164989.pdb


 11 11  0  0  0  0  0  0  0  0999 V2000
   68.1690   47.5853   57.3068 N   0  0  0  0  0  0  0  0  0  0  0  0
   68.5641   47.7243   55.9598 C   0  0  0  0  0  0  0  0  0  0  0  0
   68.9685   48.9477   55.4680 C   0  0  0  0  0  0  0  0  0  0  0  0
   69.3520   49.0530   54.1384 C   0  0  0  0  0  0  0  0  0  0  0  0
   69.3410   47.9666   53.2919 C   0  0  0  0  0  0  0  0  0  0  0  0
   68.9329   46.7572   53.8114 C   0  0  0  0  0  0  0  0  0  0  0  0
   68.5443   46.6232   55.1355 C   0  0  0  0  0  0  0  0  0  0  0  0
   68.1369   45.3972   55.6376 O   0  0  0  0  0  0  0  0  0  0  0  0
   69.7331   48.0838   51.9422 N   0  0  0  0  0  0  0  0  0  0  0  0
   69.8843   47.0890   51.2115 O   0  0  0  0  0  0  0  0  0  0  0  0
   69.9572   49.3246   51.4113 O   0  0  0  0  0  0  0  0  0  0  0  0
  1  2  1  0  0  0
  2  3  2  0  0  0
  2  7  1  0  0  0
  3  4  1  0  0  0
  4  5  2  0  0  0
  5  9  1  0  0  0
  5  6  1  0  0  0
  9 10  2  0  0  0
  9 11  1  0  0  0
  6  7  2  0  0  0
  7  8  1  0  0  0
M  CHG 1   9   1
M  CHG 1  11  -1
M  END
> <minimizedAffinity>
-5.97847

$$$$
../data/sim29_sdf/CHEMBL2311152.pdb


 12 12  0  0  0  0  0  0  0  0999 V2000
   69.3331   48.0651   53.3174 C   0  0  0  0  0  0  0  0  0  0  0  0
   68.8697   47.0668   52.4782 C   0  0  0  0  0  0  0  0  0  0  0  0
   68.3178   45.9030   52.9318 C   0  0  0  0  0  0  0  0  0  0  0  0
   68.2229   45.7231   54.3135 C   0  0  0  0  0  0  0  0  0  0  0  0
   67.6734   44.5659   54.8372 O   0  0  0  0  0  0  0  0  0  0  0  0
   68.6726   46.6936   55.1777 C   0  0  0  0  0  0  0  0  0  0  0  0
   68.5910   46.5422   56.5502 O   0  0  0  0  0  0  0  0  0  0  0  0
   69.2347   47.8780   54.6779 C   0  0  0  0  0  0  0  0  0  0  0  0
   69.9213   49.3048   52.7491 C   0  0  0  0  0  0  0  0  0  0  0  0
   69.7338   49.3776   51.3593 O   0  0  0  0  0  0  0  0  0  0  0  0
   69.3169   50.5439   53.3842 C   0  0  0  0  0  0  0  0  0  0  0  0
   70.3943   51.5073   53.5612 N   0  0  0  0  0  0  0  0  0  0  0  0
  9 10  1  0  0  0
  9 11  1  0  0  0
  9  1  1  0  0  0
 11 12  1  0  0  0
  1  2  2  0  0  0
  1  8  1  0  0  0
  2  3  1  0  0  0
  3  4  2  0  0  0
  4  5  1  0  0  0
  4  6  1  0  0  0
  6  7  1  0  0  0
  6  8  2  0  0  0
M  CHG 1  12   1
M  END
> <minimizedAffinity>
-6.01877

$$$$
../data/sim29_sdf/CHEMBL1160982.pdb


 13 13  0  0  0  0  0  0  0  0999 V2000
   68.7337   47.9782   55.3807 C   0  0  0  0  0  0  0  0  0  0  0  0
   68.0975   46.9378   54.7285 C   0  0  0  0  0  0  0  0  0  0  0  0
   68.3805   46.6188   53.4156 C   0  0  0  0  0  0  0  0  0  0  0  0
   69.3230   47.3408   52.7015 C   0  0  0  0  0  0  0  0  0  0  0  0
   69.6356   47.0521   51.3839 O   0  0  0  0  0  0  0  0  0  0  0  0
   69.9589   48.3697   53.3318 C   0  0  0  0  0  0  0  0  0  0  0  0
   70.9100   49.1032   52.6221 O   0  0  0  0  0  0  0  0  0  0  0  0
   69.6674   48.6834   54.6517 C   0  0  0  0  0  0  0  0  0  0  0  0
   68.4055   48.2929   56.7881 C   0  0  0  0  0  0  0  0  0  0  0  0
   67.1366   47.8892   57.1599 O   0  0  0  0  0  0  0  0  0  0  0  0
   67.3094   50.2629   57.7058 C   0  0  0  0  0  0  0  0  0  0  0  0
   68.6330   49.7689   57.1051 C   0  0  0  0  0  0  0  0  0  0  0  0
   69.6219   49.9520   58.1198 N   0  0  0  0  0  0  0  0  0  0  0  0
 12 11  1  0  0  0
 12 13  1  0  0  0
 12  9  1  0  0  0
  9 10  1  0  0  0
  9  1  1  0  0  0
  1  2  2  0  0  0
  1  8  1  0  0  0
  2  3  1  0  0  0
  3  4  2  0  0  0
  4  5  1  0  0  0
  4  6  1  0  0  0
  6  7  1  0  0  0
  6  8  2  0  0  0
M  CHG 1  13   1
M  END
> <minimizedAffinity>
-6.31087

$$$$
../data/sim29_sdf/CHEMBL1350643.pdb


 17 18  0  0  0  0  0  0  0  0999 V2000
   69.0360   50.8463   55.7496 C   0  0  0  0  0  0  0  0  0  0  0  0
   69.5939   47.1667   51.4485 N   0  0  0  0  0  0  0  0  0  0  0  0
   69.4493   48.0766   52.5551 C   0  0  0  0  0  0  0  0  0  0  0  0
   69.2456   47.5913   53.8272 C   0  0  0  0  0  0  0  0  0  0  0  0
   69.1107   48.5070   54.8713 C   0  0  0  0  0  0  0  0  0  0  0  0
   69.1750   49.8640   54.6703 C   0  0  0  0  0  0  0  0  0  0  0  0
   69.3805   50.3091   53.3748 C   0  0  0  0  0  0  0  0  0  0  0  0
   69.5168   49.4206   52.3218 C   0  0  0  0  0  0  0  0  0  0  0  0
   69.7237   49.9258   51.0305 O   0  0  0  0  0  0  0  0  0  0  0  0
   70.2669   51.6395   55.9910 C   0  0  0  0  0  0  0  0  0  0  0  0
   70.1903   53.0121   55.9013 C   0  0  0  0  0  0  0  0  0  0  0  0
   71.3096   53.7947   56.1177 C   0  0  0  0  0  0  0  0  0  0  0  0
   72.5243   53.2159   56.4276 C   0  0  0  0  0  0  0  0  0  0  0  0
   73.6919   54.0267   56.6537 N   0  0  0  0  0  0  0  0  0  0  0  0
   72.6213   51.8414   56.5220 C   0  0  0  0  0  0  0  0  0  0  0  0
   73.8543   51.2825   56.8341 O   0  0  0  0  0  0  0  0  0  0  0  0
   71.4900   51.0858   56.3010 C   0  0  0  0  0  0  0  0  0  0  0  0
  2  3  1  0  0  0
  3  4  2  0  0  0
  3  8  1  0  0  0
  4  5  1  0  0  0
  5  6  2  0  0  0
  6  1  1  0  0  0
  6  7  1  0  0  0
  1 10  1  0  0  0
 10 11  2  0  0  0
 10 17  1  0  0  0
 11 12  1  0  0  0
 12 13  2  0  0  0
 13 14  1  0  0  0
 13 15  1  0  0  0
 15 16  1  0  0  0
 15 17  2  0  0  0
  7  8  2  0  0  0
  8  9  1  0  0  0
M  END
> <minimizedAffinity>
-7.29621

$$$$
../data/sim29_sdf/CHEMBL1612659.pdb


 13 13  0  0  0  0  0  0  0  0999 V2000
   68.7616   47.9202   55.4408 C   0  0  0  0  0  0  0  0  0  0  0  0
   68.1036   46.9039   54.7805 C   0  0  0  0  0  0  0  0  0  0  0  0
   68.3728   46.6354   53.4455 C   0  0  0  0  0  0  0  0  0  0  0  0
   69.2971   47.3586   52.7248 C   0  0  0  0  0  0  0  0  0  0  0  0
   69.5740   47.0938   51.3794 O   0  0  0  0  0  0  0  0  0  0  0  0
   69.9590   48.3752   53.3769 C   0  0  0  0  0  0  0  0  0  0  0  0
   70.9030   49.1304   52.6797 O   0  0  0  0  0  0  0  0  0  0  0  0
   69.6868   48.6438   54.7191 C   0  0  0  0  0  0  0  0  0  0  0  0
   68.4630   48.1956   56.8681 C   0  0  0  0  0  0  0  0  0  0  0  0
   67.1051   47.9250   57.1529 O   0  0  0  0  0  0  0  0  0  0  0  0
   67.4036   50.3579   57.5864 C   0  0  0  0  0  0  0  0  0  0  0  0
   68.6731   49.6606   57.2033 C   0  0  0  0  0  0  0  0  0  0  0  0
   69.7363   49.8150   58.1548 N   0  0  0  0  0  0  0  0  0  0  0  0
 12 11  1  0  0  0
 12 13  1  0  0  0
 12  9  1  0  0  0
  9 10  1  0  0  0
  9  1  1  0  0  0
  1  2  2  0  0  0
  1  8  1  0  0  0
  2  3  1  0  0  0
  3  4  2  0  0  0
  4  5  1  0  0  0
  4  6  1  0  0  0
  6  7  1  0  0  0
  6  8  2  0  0  0
M  CHG 1  13   1
M  END
> <minimizedAffinity>
-6.27791

$$$$
../data/sim29_sdf/CHEMBL1462.pdb


 11 11  0  0  0  0  0  0  0  0999 V2000
   68.1512   47.5813   57.3421 N   0  0  0  0  0  0  0  0  0  0  0  0
   68.5604   47.7746   56.0047 C   0  0  0  0  0  0  0  0  0  0  0  0
   68.9793   48.9758   55.4962 C   0  0  0  0  0  0  0  0  0  0  0  0
   69.3622   49.0861   54.1850 C   0  0  0  0  0  0  0  0  0  0  0  0
   69.3367   47.9928   53.3454 C   0  0  0  0  0  0  0  0  0  0  0  0
   68.9184   46.7794   53.8444 C   0  0  0  0  0  0  0  0  0  0  0  0
   68.5342   46.6717   55.1607 C   0  0  0  0  0  0  0  0  0  0  0  0
   68.1187   45.4304   55.6272 O   0  0  0  0  0  0  0  0  0  0  0  0
   69.7468   48.1046   51.9408 C   0  0  0  0  0  0  0  0  0  0  0  0
   69.8674   47.0506   51.2839 O   0  0  0  0  0  0  0  0  0  0  0  0
   69.9972   49.3268   51.3485 O   0  0  0  0  0  0  0  0  0  0  0  0
  1  2  1  0  0  0
  2  3  2  0  0  0
  2  7  1  0  0  0
  3  4  1  0  0  0
  4  5  2  0  0  0
  5  9  1  0  0  0
  5  6  1  0  0  0
  9 10  2  0  0  0
  9 11  1  0  0  0
  6  7  2  0  0  0
  7  8  1  0  0  0
M  END
> <minimizedAffinity>
-6.13689

$$$$
../data/sim29_sdf/CHEMBL3273169.pdb


 12 12  0  0  0  0  0  0  0  0999 V2000
   68.8446   47.8250   54.8055 C   0  0  0  0  0  0  0  0  0  0  0  0
   69.0380   49.1885   54.7120 C   0  0  0  0  0  0  0  0  0  0  0  0
   69.3780   49.8173   53.5375 C   0  0  0  0  0  0  0  0  0  0  0  0
   69.5362   49.0779   52.4027 C   0  0  0  0  0  0  0  0  0  0  0  0
   69.8756   49.6722   51.2099 O   0  0  0  0  0  0  0  0  0  0  0  0
   69.3483   47.6952   52.4625 C   0  0  0  0  0  0  0  0  0  0  0  0
   69.5208   46.9894   51.2831 O   0  0  0  0  0  0  0  0  0  0  0  0
   69.0080   47.0882   53.6519 C   0  0  0  0  0  0  0  0  0  0  0  0
   68.4823   47.2510   56.1107 C   0  0  0  0  0  0  0  0  0  0  0  0
   68.5009   45.8496   56.0013 O   0  0  0  0  0  0  0  0  0  0  0  0
   69.8231   46.4124   57.9409 N   0  0  0  0  0  0  0  0  0  0  0  0
   69.4826   47.6022   57.1930 C   0  0  0  0  0  0  0  0  0  0  0  0
 11 12  1  0  0  0
 12  9  1  0  0  0
  9 10  1  0  0  0
  9  1  1  0  0  0
  1  2  2  0  0  0
  1  8  1  0  0  0
  2  3  1  0  0  0
  3  4  2  0  0  0
  4  5  1  0  0  0
  4  6  1  0  0  0
  6  7  1  0  0  0
  6  8  2  0  0  0
M  CHG 1  11   1
M  END
> <minimizedAffinity>
-6.02336

$$$$
../data/sim29_sdf/CHEMBL1437.pdb


 12 12  0  0  0  0  0  0  0  0999 V2000
   69.0416   47.7268   54.6625 C   0  0  0  0  0  0  0  0  0  0  0  0
   69.0207   49.1049   54.6855 C   0  0  0  0  0  0  0  0  0  0  0  0
   69.2586   49.8227   53.5317 C   0  0  0  0  0  0  0  0  0  0  0  0
   69.5236   49.2207   52.3194 C   0  0  0  0  0  0  0  0  0  0  0  0
   69.7605   49.9870   51.1698 O   0  0  0  0  0  0  0  0  0  0  0  0
   69.5465   47.8469   52.2873 C   0  0  0  0  0  0  0  0  0  0  0  0
   69.8043   47.1882   51.1143 O   0  0  0  0  0  0  0  0  0  0  0  0
   69.3077   47.1423   53.4419 C   0  0  0  0  0  0  0  0  0  0  0  0
   68.7893   46.9208   55.8871 C   0  0  0  0  0  0  0  0  0  0  0  0
   67.7073   47.4590   56.5718 O   0  0  0  0  0  0  0  0  0  0  0  0
   68.8929   44.5471   56.4894 N   0  0  0  0  0  0  0  0  0  0  0  0
   68.5445   45.5038   55.4581 C   0  0  0  0  0  0  0  0  0  0  0  0
 11 12  1  0  0  0
 12  9  1  0  0  0
  9 10  1  0  0  0
  9  1  1  0  0  0
  1  2  2  0  0  0
  1  8  1  0  0  0
  2  3  1  0  0  0
  3  4  2  0  0  0
  4  5  1  0  0  0
  4  6  1  0  0  0
  6  7  1  0  0  0
  6  8  2  0  0  0
M  CHG 1  11   1
M  END
> <minimizedAffinity>
-6.12373

$$$$
../data/sim29_sdf/CHEMBL270197.pdb


  9  9  0  0  0  0  0  0  0  0999 V2000
   70.8172   49.4438   53.6644 N   0  0  0  0  0  0  0  0  0  0  0  0
   69.8975   48.3857   53.3877 C   0  0  0  0  0  0  0  0  0  0  0  0
   69.1334   47.8136   54.3842 C   0  0  0  0  0  0  0  0  0  0  0  0
   68.2484   46.7919   54.1047 C   0  0  0  0  0  0  0  0  0  0  0  0
   68.0777   46.2914   52.8295 C   0  0  0  0  0  0  0  0  0  0  0  0
   67.1837   45.2627   52.5594 O   0  0  0  0  0  0  0  0  0  0  0  0
   68.8478   46.8695   51.8312 C   0  0  0  0  0  0  0  0  0  0  0  0
   69.7309   47.8897   52.1124 C   0  0  0  0  0  0  0  0  0  0  0  0
   70.4885   48.4513   51.0991 O   0  0  0  0  0  0  0  0  0  0  0  0
  1  2  1  0  0  0
  2  3  2  0  0  0
  2  8  1  0  0  0
  3  4  1  0  0  0
  4  5  2  0  0  0
  5  6  1  0  0  0
  5  7  1  0  0  0
  7  8  2  0  0  0
  8  9  1  0  0  0
M  END
> <minimizedAffinity>
-5.59603

$$$$
../data/sim29_sdf/CHEMBL3248963.pdb


 12 12  0  0  0  0  0  0  0  0999 V2000
   68.8163   47.4663   54.6078 C   0  0  0  0  0  0  0  0  0  0  0  0
   68.6692   46.6727   53.4774 C   0  0  0  0  0  0  0  0  0  0  0  0
   69.2527   47.0561   52.2865 C   0  0  0  0  0  0  0  0  0  0  0  0
   69.9791   48.2275   52.2285 C   0  0  0  0  0  0  0  0  0  0  0  0
   70.5610   48.6041   51.0282 O   0  0  0  0  0  0  0  0  0  0  0  0
   70.1104   49.0023   53.3757 C   0  0  0  0  0  0  0  0  0  0  0  0
   70.8422   50.1797   53.3124 O   0  0  0  0  0  0  0  0  0  0  0  0
   69.5322   48.6328   54.5754 C   0  0  0  0  0  0  0  0  0  0  0  0
   68.1733   47.0060   55.8421 C   0  0  0  0  0  0  0  0  0  0  0  0
   68.6368   45.7470   56.2144 O   0  0  0  0  0  0  0  0  0  0  0  0
   67.0076   48.2388   57.5290 N   0  0  0  0  0  0  0  0  0  0  0  0
   68.3354   47.9611   56.9952 C   0  0  0  0  0  0  0  0  0  0  0  0
 11 12  1  0  0  0
 12  9  1  0  0  0
  9 10  1  0  0  0
  9  1  1  0  0  0
  1  2  2  0  0  0
  1  8  1  0  0  0
  2  3  1  0  0  0
  3  4  2  0  0  0
  4  5  1  0  0  0
  4  6  1  0  0  0
  6  7  1  0  0  0
  6  8  2  0  0  0
M  CHG 1  11   1
M  END
> <minimizedAffinity>
-6.00736

$$$$
../data/sim29_sdf/CHEMBL14927.pdb


 22 23  0  0  0  0  0  0  0  0999 V2000
   69.7145   48.8458   56.3860 C   0  0  0  0  0  0  0  0  0  0  0  0
   69.3868   48.3243   55.0339 C   0  0  0  0  0  0  0  0  0  0  0  0
   68.5856   47.2179   54.8389 C   0  0  0  0  0  0  0  0  0  0  0  0
   68.2922   46.7469   53.5650 C   0  0  0  0  0  0  0  0  0  0  0  0
   68.7919   47.3711   52.4510 C   0  0  0  0  0  0  0  0  0  0  0  0
   68.4560   46.8447   51.2036 O   0  0  0  0  0  0  0  0  0  0  0  0
   69.5882   48.4701   52.6088 C   0  0  0  0  0  0  0  0  0  0  0  0
   70.1023   49.1110   51.4553 N   0  0  0  0  0  0  0  0  0  0  0  0
   69.8641   48.9160   53.8817 C   0  0  0  0  0  0  0  0  0  0  0  0
   70.5571   47.1970   58.0368 C   0  0  0  0  0  0  0  0  0  0  0  0
   69.3217   47.7828   57.3823 C   0  0  0  0  0  0  0  0  0  0  0  0
   69.0486   50.1619   56.6248 C   0  0  0  0  0  0  0  0  0  0  0  0
   70.0663   51.2425   56.6650 C   0  0  0  0  0  0  0  0  0  0  0  0
   69.8175   52.5115   56.1415 C   0  0  0  0  0  0  0  0  0  0  0  0
   70.7364   53.5121   56.1671 C   0  0  0  0  0  0  0  0  0  0  0  0
   71.9805   53.3155   56.7226 C   0  0  0  0  0  0  0  0  0  0  0  0
   72.9465   54.3393   56.7599 O   0  0  0  0  0  0  0  0  0  0  0  0
   72.2788   52.0701   57.2579 C   0  0  0  0  0  0  0  0  0  0  0  0
   73.5532   51.8482   57.8330 N   0  0  0  0  0  0  0  0  0  0  0  0
   71.3250   51.0773   57.2153 C   0  0  0  0  0  0  0  0  0  0  0  0
   68.0658   50.1969   57.7269 C   0  0  0  0  0  0  0  0  0  0  0  0
   66.8127   50.9403   57.5108 C   0  0  0  0  0  0  0  0  0  0  0  0
 10 11  1  0  0  0
  1 11  1  0  0  0
  1  2  1  0  0  0
  1 12  1  0  0  0
  2  3  2  0  0  0
  2  9  1  0  0  0
  3  4  1  0  0  0
  4  5  2  0  0  0
  5  6  1  0  0  0
  5  7  1  0  0  0
  7  8  1  0  0  0
  7  9  2  0  0  0
 12 21  1  0  0  0
 12 13  1  0  0  0
 21 22  1  0  0  0
 13 14  2  0  0  0
 13 20  1  0  0  0
 14 15  1  0  0  0
 15 16  2  0  0  0
 16 17  1  0  0  0
 16 18  1  0  0  0
 18 19  1  0  0  0
 18 20  2  0  0  0
M  END
> <minimizedAffinity>
-8.03441

$$$$
../data/sim29_sdf/CHEMBL1256471.pdb


 13 13  0  0  0  0  0  0  0  0999 V2000
   69.3921   48.0250   53.4708 C   0  0  0  0  0  0  0  0  0  0  0  0
   69.0056   47.8380   52.1522 C   0  0  0  0  0  0  0  0  0  0  0  0
   68.2459   46.7366   51.8033 C   0  0  0  0  0  0  0  0  0  0  0  0
   67.8445   45.7907   52.7232 C   0  0  0  0  0  0  0  0  0  0  0  0
   67.0799   44.6948   52.3309 O   0  0  0  0  0  0  0  0  0  0  0  0
   68.2330   45.9804   54.0340 C   0  0  0  0  0  0  0  0  0  0  0  0
   67.8257   45.0195   54.9749 O   0  0  0  0  0  0  0  0  0  0  0  0
   68.9908   47.0774   54.3912 C   0  0  0  0  0  0  0  0  0  0  0  0
   70.2047   49.2013   53.8491 C   0  0  0  0  0  0  0  0  0  0  0  0
   71.4157   49.2733   53.2051 O   0  0  0  0  0  0  0  0  0  0  0  0
   68.7363   50.8951   54.9458 C   0  0  0  0  0  0  0  0  0  0  0  0
   69.3768   50.4610   53.6429 C   0  0  0  0  0  0  0  0  0  0  0  0
   70.1364   51.5442   53.0985 N   0  0  0  0  0  0  0  0  0  0  0  0
 12 11  1  0  0  0
 12 13  1  0  0  0
 12  9  1  0  0  0
  9 10  1  0  0  0
  9  1  1  0  0  0
  1  2  2  0  0  0
  1  8  1  0  0  0
  2  3  1  0  0  0
  3  4  2  0  0  0
  4  5  1  0  0  0
  4  6  1  0  0  0
  6  7  1  0  0  0
  6  8  2  0  0  0
M  CHG 1  13   1
M  END
> <minimizedAffinity>
-6.29336

$$$$
../data/sim29_sdf/CHEMBL3637795.pdb


 20 21  0  0  0  0  0  0  0  0999 V2000
   69.5554   49.1985   52.7253 C   0  0  0  0  0  0  0  0  0  0  0  0
   70.1392   49.0902   51.4635 O   0  0  0  0  0  0  0  0  0  0  0  0
   67.7387   44.3581   55.0185 N   0  0  0  0  0  0  0  0  0  0  0  0
   68.1553   45.5432   54.3654 C   0  0  0  0  0  0  0  0  0  0  0  0
   68.8827   46.4450   55.1313 C   0  0  0  0  0  0  0  0  0  0  0  0
   69.3048   47.6036   54.5425 C   0  0  0  0  0  0  0  0  0  0  0  0
   69.0328   47.9092   53.2081 C   0  0  0  0  0  0  0  0  0  0  0  0
   68.3208   47.0014   52.4977 C   0  0  0  0  0  0  0  0  0  0  0  0
   67.8768   45.8299   53.0416 C   0  0  0  0  0  0  0  0  0  0  0  0
   67.1462   44.8813   52.3411 O   0  0  0  0  0  0  0  0  0  0  0  0
   70.6014   49.8015   53.6527 C   0  0  0  0  0  0  0  0  0  0  0  0
   70.4551   51.2078   53.5998 N   0  0  0  0  0  0  0  0  0  0  0  0
   69.4791   51.8166   54.4104 C   0  0  0  0  0  0  0  0  0  0  0  0
   69.7782   51.7934   55.8910 C   0  0  0  0  0  0  0  0  0  0  0  0
   68.7540   51.0063   56.6291 C   0  0  0  0  0  0  0  0  0  0  0  0
   68.9639   49.7151   57.0718 C   0  0  0  0  0  0  0  0  0  0  0  0
   67.9899   49.0020   57.7640 C   0  0  0  0  0  0  0  0  0  0  0  0
   66.7679   49.5789   58.0296 C   0  0  0  0  0  0  0  0  0  0  0  0
   66.5326   50.8588   57.6023 C   0  0  0  0  0  0  0  0  0  0  0  0
   67.5114   51.5562   56.9144 C   0  0  0  0  0  0  0  0  0  0  0  0
  3  4  1  0  0  0
  4  5  2  0  0  0
  4  9  1  0  0  0
  5  6  1  0  0  0
  6  7  2  0  0  0
  7  1  1  0  0  0
  7  8  1  0  0  0
  1  2  1  0  0  0
  1 11  1  0  0  0
 11 12  1  0  0  0
 12 13  1  0  0  0
 13 14  1  0  0  0
 14 15  1  0  0  0
 15 16  2  0  0  0
 15 20  1  0  0  0
 16 17  1  0  0  0
 17 18  2  0  0  0
 18 19  1  0  0  0
 19 20  2  0  0  0
  8  9  2  0  0  0
  9 10  1  0  0  0
M  CHG 1  12   1
M  END
> <minimizedAffinity>
-7.52790

$$$$
