../data/sim29_sdf/CHEMBL677.pdb


 13 13  0  0  0  0  0  0  0  0999 V2000
   69.1198   49.7252   54.6560 C   0  0  0  0  0  0  0  0  0  0  0  0
   69.0498   48.3630   54.8410 C   0  0  0  0  0  0  0  0  0  0  0  0
   69.2079   47.5027   53.7750 C   0  0  0  0  0  0  0  0  0  0  0  0
   69.4421   47.9943   52.4875 C   0  0  0  0  0  0  0  0  0  0  0  0
   69.5985   47.1121   51.4284 O   0  0  0  0  0  0  0  0  0  0  0  0
   69.5101   49.3596   52.3103 C   0  0  0  0  0  0  0  0  0  0  0  0
   69.7394   49.8736   51.0545 O   0  0  0  0  0  0  0  0  0  0  0  0
   69.3497   50.2050   53.3870 C   0  0  0  0  0  0  0  0  0  0  0  0
   68.9582   50.6773   55.7566 C   0  0  0  0  0  0  0  0  0  0  0  0
   68.1137   51.7257   55.3390 O   0  0  0  0  0  0  0  0  0  0  0  0
   67.1577   50.9989   57.3614 C   0  0  0  0  0  0  0  0  0  0  0  0
   68.3070   50.0763   56.9785 C   0  0  0  0  0  0  0  0  0  0  0  0
   69.1980   49.9529   58.0891 N   0  0  0  0  0  0  0  0  0  0  0  0
 12 11  1  0  0  0
 12 13  1  0  0  0
 12  9  1  0  0  0
  9 10  1  0  0  0
  9  1  1  0  0  0
  1  2  2  0  0  0
  1  8  1  0  0  0
  2  3  1  0  0  0
  3  4  2  0  0  0
  4  5  1  0  0  0
  4  6  1  0  0  0
  6  7  1  0  0  0
  6  8  2  0  0  0
M  CHG 1  13   1
M  END
> <minimizedAffinity>
-6.24985

$$$$
../data/sim29_sdf/CHEMBL677.pdb


 13 13  0  0  0  0  0  0  0  0999 V2000
   69.1646   49.8474   54.6677 C   0  0  0  0  0  0  0  0  0  0  0  0
   69.1033   48.4808   54.8348 C   0  0  0  0  0  0  0  0  0  0  0  0
   69.2382   47.5978   53.7939 C   0  0  0  0  0  0  0  0  0  0  0  0
   69.4478   48.0450   52.4944 C   0  0  0  0  0  0  0  0  0  0  0  0
   69.5792   47.1061   51.4614 O   0  0  0  0  0  0  0  0  0  0  0  0
   69.5122   49.4000   52.2995 C   0  0  0  0  0  0  0  0  0  0  0  0
   69.7197   49.9153   51.0259 O   0  0  0  0  0  0  0  0  0  0  0  0
   69.3719   50.2824   53.3807 C   0  0  0  0  0  0  0  0  0  0  0  0
   69.0151   50.7746   55.8122 C   0  0  0  0  0  0  0  0  0  0  0  0
   68.2546   51.9114   55.4525 O   0  0  0  0  0  0  0  0  0  0  0  0
   67.0864   50.9327   57.4080 C   0  0  0  0  0  0  0  0  0  0  0  0
   68.2983   50.1474   56.9825 C   0  0  0  0  0  0  0  0  0  0  0  0
   69.2199   49.9365   58.0849 N   0  0  0  0  0  0  0  0  0  0  0  0
 12 11  1  0  0  0
 12 13  1  0  0  0
 12  9  1  0  0  0
  9 10  1  0  0  0
  9  1  1  0  0  0
  1  2  2  0  0  0
  1  8  1  0  0  0
  2  3  1  0  0  0
  3  4  2  0  0  0
  4  5  1  0  0  0
  4  6  1  0  0  0
  6  7  1  0  0  0
  6  8  2  0  0  0
M  CHG 1  13   1
M  END
> <minimizedAffinity>
-6.17208

$$$$
../data/sim29_sdf/CHEMBL155014.pdb


 22 23  0  0  0  0  0  0  0  0999 V2000
   69.2395   50.3223   56.1289 C   0  0  0  0  0  0  0  0  0  0  0  0
   69.2687   49.4881   54.9022 C   0  0  0  0  0  0  0  0  0  0  0  0
   69.0412   48.1361   55.0000 C   0  0  0  0  0  0  0  0  0  0  0  0
   69.0787   47.3531   53.8831 C   0  0  0  0  0  0  0  0  0  0  0  0
   69.3403   47.8873   52.6432 C   0  0  0  0  0  0  0  0  0  0  0  0
   69.3751   47.0534   51.4815 N   0  0  0  0  0  0  0  0  0  0  0  0
   69.5673   49.2437   52.5450 C   0  0  0  0  0  0  0  0  0  0  0  0
   69.8331   49.8062   51.3110 O   0  0  0  0  0  0  0  0  0  0  0  0
   69.5293   50.0310   53.6733 C   0  0  0  0  0  0  0  0  0  0  0  0
   67.1619   50.8686   57.4844 C   0  0  0  0  0  0  0  0  0  0  0  0
   68.1154   49.8228   57.0230 C   0  0  0  0  0  0  0  0  0  0  0  0
   70.4822   50.4016   56.9157 C   0  0  0  0  0  0  0  0  0  0  0  0
   71.2126   51.6497   56.4743 C   0  0  0  0  0  0  0  0  0  0  0  0
   70.5800   52.8669   56.4649 C   0  0  0  0  0  0  0  0  0  0  0  0
   71.2884   53.9765   56.0538 C   0  0  0  0  0  0  0  0  0  0  0  0
   72.6046   53.9456   55.6475 C   0  0  0  0  0  0  0  0  0  0  0  0
   73.2917   55.1196   55.2332 N   0  0  0  0  0  0  0  0  0  0  0  0
   73.2075   52.7026   55.6710 C   0  0  0  0  0  0  0  0  0  0  0  0
   74.5356   52.6258   55.2691 O   0  0  0  0  0  0  0  0  0  0  0  0
   72.5213   51.5839   56.0771 C   0  0  0  0  0  0  0  0  0  0  0  0
   71.4699   49.3028   56.8104 C   0  0  0  0  0  0  0  0  0  0  0  0
   71.5046   48.3113   57.9411 C   0  0  0  0  0  0  0  0  0  0  0  0
 10 11  1  0  0  0
  1 11  1  0  0  0
  1  2  1  0  0  0
  1 12  1  0  0  0
  2  3  2  0  0  0
  2  9  1  0  0  0
  3  4  1  0  0  0
  4  5  2  0  0  0
  5  6  1  0  0  0
  5  7  1  0  0  0
  7  8  1  0  0  0
  7  9  2  0  0  0
 12 21  1  0  0  0
 12 13  1  0  0  0
 21 22  1  0  0  0
 13 14  2  0  0  0
 13 20  1  0  0  0
 14 15  1  0  0  0
 15 16  2  0  0  0
 16 17  1  0  0  0
 16 18  1  0  0  0
 18 19  1  0  0  0
 18 20  2  0  0  0
M  END
> <minimizedAffinity>
-8.05685

$$$$
../data/sim29_sdf/CHEMBL155014.pdb


 22 23  0  0  0  0  0  0  0  0999 V2000
   70.4044   50.3829   56.7225 C   0  0  0  0  0  0  0  0  0  0  0  0
   71.0994   51.6207   56.3882 C   0  0  0  0  0  0  0  0  0  0  0  0
   70.5764   52.8955   56.4154 C   0  0  0  0  0  0  0  0  0  0  0  0
   71.3144   54.0069   56.0545 C   0  0  0  0  0  0  0  0  0  0  0  0
   72.6199   53.8526   55.6528 C   0  0  0  0  0  0  0  0  0  0  0  0
   73.3562   55.0058   55.2887 N   0  0  0  0  0  0  0  0  0  0  0  0
   73.1854   52.6043   55.6098 C   0  0  0  0  0  0  0  0  0  0  0  0
   74.5128   52.4854   55.1979 O   0  0  0  0  0  0  0  0  0  0  0  0
   72.4217   51.5268   55.9750 C   0  0  0  0  0  0  0  0  0  0  0  0
   71.3711   48.4761   58.0520 C   0  0  0  0  0  0  0  0  0  0  0  0
   71.4048   49.2601   56.7980 C   0  0  0  0  0  0  0  0  0  0  0  0
   69.0722   50.0807   56.2210 C   0  0  0  0  0  0  0  0  0  0  0  0
   69.1653   49.3122   54.9417 C   0  0  0  0  0  0  0  0  0  0  0  0
   68.9436   47.9581   54.9552 C   0  0  0  0  0  0  0  0  0  0  0  0
   69.0171   47.1695   53.7985 C   0  0  0  0  0  0  0  0  0  0  0  0
   69.3231   47.7734   52.6010 C   0  0  0  0  0  0  0  0  0  0  0  0
   69.4115   47.0334   51.4084 N   0  0  0  0  0  0  0  0  0  0  0  0
   69.5524   49.1498   52.5656 C   0  0  0  0  0  0  0  0  0  0  0  0
   69.8620   49.7947   51.3861 O   0  0  0  0  0  0  0  0  0  0  0  0
   69.4674   49.8726   53.7266 C   0  0  0  0  0  0  0  0  0  0  0  0
   67.9388   49.6883   57.0682 C   0  0  0  0  0  0  0  0  0  0  0  0
   67.0447   50.7799   57.5833 C   0  0  0  0  0  0  0  0  0  0  0  0
 10 11  1  0  0  0
  1 11  1  0  0  0
  1  2  1  0  0  0
  1 12  1  0  0  0
  2  3  2  0  0  0
  2  9  1  0  0  0
  3  4  1  0  0  0
  4  5  2  0  0  0
  5  6  1  0  0  0
  5  7  1  0  0  0
  7  8  1  0  0  0
  7  9  2  0  0  0
 12 21  1  0  0  0
 12 13  1  0  0  0
 21 22  1  0  0  0
 13 14  2  0  0  0
 13 20  1  0  0  0
 14 15  1  0  0  0
 15 16  2  0  0  0
 16 17  1  0  0  0
 16 18  1  0  0  0
 18 19  1  0  0  0
 18 20  2  0  0  0
M  END
> <minimizedAffinity>
-8.05624

$$$$
../data/sim29_sdf/CHEMBL155014.pdb


 22 23  0  0  0  0  0  0  0  0999 V2000
   70.5835   50.2716   56.8303 C   0  0  0  0  0  0  0  0  0  0  0  0
   71.2847   51.5343   56.4413 C   0  0  0  0  0  0  0  0  0  0  0  0
   70.6700   52.7609   56.4870 C   0  0  0  0  0  0  0  0  0  0  0  0
   71.3475   53.9165   56.1183 C   0  0  0  0  0  0  0  0  0  0  0  0
   72.6676   53.8458   55.6960 C   0  0  0  0  0  0  0  0  0  0  0  0
   73.3598   55.0368   55.3180 N   0  0  0  0  0  0  0  0  0  0  0  0
   73.2866   52.6248   55.6475 C   0  0  0  0  0  0  0  0  0  0  0  0
   74.6033   52.5694   55.2232 O   0  0  0  0  0  0  0  0  0  0  0  0
   72.5881   51.4778   56.0213 C   0  0  0  0  0  0  0  0  0  0  0  0
   71.3080   49.0752   58.9654 C   0  0  0  0  0  0  0  0  0  0  0  0
   70.6355   50.2151   58.3135 C   0  0  0  0  0  0  0  0  0  0  0  0
   69.2469   50.2831   56.1914 C   0  0  0  0  0  0  0  0  0  0  0  0
   69.2808   49.4377   54.9537 C   0  0  0  0  0  0  0  0  0  0  0  0
   69.0661   48.0765   55.0103 C   0  0  0  0  0  0  0  0  0  0  0  0
   69.0942   47.2936   53.8607 C   0  0  0  0  0  0  0  0  0  0  0  0
   69.3367   47.8378   52.6206 C   0  0  0  0  0  0  0  0  0  0  0  0
   69.3698   47.0575   51.4281 N   0  0  0  0  0  0  0  0  0  0  0  0
   69.5521   49.1979   52.5573 C   0  0  0  0  0  0  0  0  0  0  0  0
   69.7993   49.7774   51.3170 O   0  0  0  0  0  0  0  0  0  0  0  0
   69.5243   49.9722   53.6966 C   0  0  0  0  0  0  0  0  0  0  0  0
   68.0669   49.9227   57.0075 C   0  0  0  0  0  0  0  0  0  0  0  0
   67.1391   51.0552   57.3579 C   0  0  0  0  0  0  0  0  0  0  0  0
 10 11  1  0  0  0
  1 11  1  0  0  0
  1  2  1  0  0  0
  1 12  1  0  0  0
  2  3  2  0  0  0
  2  9  1  0  0  0
  3  4  1  0  0  0
  4  5  2  0  0  0
  5  6  1  0  0  0
  5  7  1  0  0  0
  7  8  1  0  0  0
  7  9  2  0  0  0
 12 21  1  0  0  0
 12 13  1  0  0  0
 21 22  1  0  0  0
 13 14  2  0  0  0
 13 20  1  0  0  0
 14 15  1  0  0  0
 15 16  2  0  0  0
 16 17  1  0  0  0
 16 18  1  0  0  0
 18 19  1  0  0  0
 18 20  2  0  0  0
M  END
> <minimizedAffinity>
-8.15344

$$$$
../data/sim29_sdf/CHEMBL155014.pdb


 22 23  0  0  0  0  0  0  0  0999 V2000
   69.1619   50.1568   56.2130 C   0  0  0  0  0  0  0  0  0  0  0  0
   69.2062   49.3116   55.0017 C   0  0  0  0  0  0  0  0  0  0  0  0
   68.9879   47.9467   55.0395 C   0  0  0  0  0  0  0  0  0  0  0  0
   69.0504   47.2236   53.8677 C   0  0  0  0  0  0  0  0  0  0  0  0
   69.3237   47.8085   52.6516 C   0  0  0  0  0  0  0  0  0  0  0  0
   69.3795   47.0208   51.4657 N   0  0  0  0  0  0  0  0  0  0  0  0
   69.5453   49.1661   52.5824 C   0  0  0  0  0  0  0  0  0  0  0  0
   69.8214   49.7551   51.3562 O   0  0  0  0  0  0  0  0  0  0  0  0
   69.4774   49.8626   53.7654 C   0  0  0  0  0  0  0  0  0  0  0  0
   67.0531   51.0156   57.3660 C   0  0  0  0  0  0  0  0  0  0  0  0
   68.0161   49.9289   57.1224 C   0  0  0  0  0  0  0  0  0  0  0  0
   70.4900   50.4210   56.8683 C   0  0  0  0  0  0  0  0  0  0  0  0
   71.2181   51.6182   56.4743 C   0  0  0  0  0  0  0  0  0  0  0  0
   70.6335   52.8667   56.4987 C   0  0  0  0  0  0  0  0  0  0  0  0
   71.3354   53.9949   56.1291 C   0  0  0  0  0  0  0  0  0  0  0  0
   72.6412   53.9341   55.7217 C   0  0  0  0  0  0  0  0  0  0  0  0
   73.3924   55.0745   55.3354 N   0  0  0  0  0  0  0  0  0  0  0  0
   73.2620   52.7075   55.6834 C   0  0  0  0  0  0  0  0  0  0  0  0
   74.6062   52.5880   55.2722 O   0  0  0  0  0  0  0  0  0  0  0  0
   72.5449   51.5890   56.0569 C   0  0  0  0  0  0  0  0  0  0  0  0
   70.4087   50.2404   58.3712 C   0  0  0  0  0  0  0  0  0  0  0  0
   71.2146   49.0072   58.7425 C   0  0  0  0  0  0  0  0  0  0  0  0
 10 11  1  0  0  0
  1 11  1  0  0  0
  1  2  1  0  0  0
  1 12  1  0  0  0
  2  3  2  0  0  0
  2  9  1  0  0  0
  3  4  1  0  0  0
  4  5  2  0  0  0
  5  6  1  0  0  0
  5  7  1  0  0  0
  7  8  1  0  0  0
  7  9  2  0  0  0
 12 21  1  0  0  0
 12 13  1  0  0  0
 21 22  1  0  0  0
 13 14  2  0  0  0
 13 20  1  0  0  0
 14 15  1  0  0  0
 15 16  2  0  0  0
 16 17  1  0  0  0
 16 18  1  0  0  0
 18 19  1  0  0  0
 18 20  2  0  0  0
M  END
> <minimizedAffinity>
-8.20513

$$$$
../data/sim29_sdf/CHEMBL155014.pdb


 22 23  0  0  0  0  0  0  0  0999 V2000
   69.4647   50.9615   55.8366 C   0  0  0  0  0  0  0  0  0  0  0  0
   70.6982   51.7941   55.9064 C   0  0  0  0  0  0  0  0  0  0  0  0
   71.0487   52.4730   57.0529 C   0  0  0  0  0  0  0  0  0  0  0  0
   72.1933   53.2307   57.0826 C   0  0  0  0  0  0  0  0  0  0  0  0
   73.0484   53.3689   56.0095 C   0  0  0  0  0  0  0  0  0  0  0  0
   74.2332   54.1729   56.0871 N   0  0  0  0  0  0  0  0  0  0  0  0
   72.7058   52.6958   54.8626 C   0  0  0  0  0  0  0  0  0  0  0  0
   73.5281   52.7960   53.7490 O   0  0  0  0  0  0  0  0  0  0  0  0
   71.5597   51.9357   54.8334 C   0  0  0  0  0  0  0  0  0  0  0  0
   67.4162   50.9402   57.3694 C   0  0  0  0  0  0  0  0  0  0  0  0
   68.2520   51.6075   56.3617 C   0  0  0  0  0  0  0  0  0  0  0  0
   69.6642   49.5110   56.1049 C   0  0  0  0  0  0  0  0  0  0  0  0
   69.3464   48.7501   54.8758 C   0  0  0  0  0  0  0  0  0  0  0  0
   68.5216   47.6659   54.8684 C   0  0  0  0  0  0  0  0  0  0  0  0
   68.2600   46.9793   53.6911 C   0  0  0  0  0  0  0  0  0  0  0  0
   68.8329   47.3834   52.4968 C   0  0  0  0  0  0  0  0  0  0  0  0
   68.5483   46.6602   51.2988 N   0  0  0  0  0  0  0  0  0  0  0  0
   69.6716   48.4778   52.4743 C   0  0  0  0  0  0  0  0  0  0  0  0
   70.2313   48.8598   51.2698 O   0  0  0  0  0  0  0  0  0  0  0  0
   69.9004   49.1260   53.6692 C   0  0  0  0  0  0  0  0  0  0  0  0
   70.9061   49.0604   56.7460 C   0  0  0  0  0  0  0  0  0  0  0  0
   70.5774   48.8727   58.2420 C   0  0  0  0  0  0  0  0  0  0  0  0
 10 11  1  0  0  0
  1 11  1  0  0  0
  1  2  1  0  0  0
  1 12  1  0  0  0
  2  3  2  0  0  0
  2  9  1  0  0  0
  3  4  1  0  0  0
  4  5  2  0  0  0
  5  6  1  0  0  0
  5  7  1  0  0  0
  7  8  1  0  0  0
  7  9  2  0  0  0
 12 21  1  0  0  0
 12 13  1  0  0  0
 21 22  1  0  0  0
 13 14  2  0  0  0
 13 20  1  0  0  0
 14 15  1  0  0  0
 15 16  2  0  0  0
 16 17  1  0  0  0
 16 18  1  0  0  0
 18 19  1  0  0  0
 18 20  2  0  0  0
M  END
> <minimizedAffinity>
-7.97537

$$$$
../data/sim29_sdf/CHEMBL2062273.pdb


 12 12  0  0  0  0  0  0  0  0999 V2000
   69.1248   48.1467   54.7797 C   0  0  0  0  0  0  0  0  0  0  0  0
   69.1798   49.5157   54.6080 C   0  0  0  0  0  0  0  0  0  0  0  0
   69.3701   50.0952   53.3652 C   0  0  0  0  0  0  0  0  0  0  0  0
   69.5136   49.3107   52.2395 C   0  0  0  0  0  0  0  0  0  0  0  0
   69.7063   49.8804   50.9730 O   0  0  0  0  0  0  0  0  0  0  0  0
   69.4620   47.9406   52.3911 C   0  0  0  0  0  0  0  0  0  0  0  0
   69.6056   47.1613   51.2626 O   0  0  0  0  0  0  0  0  0  0  0  0
   69.2690   47.3647   53.6531 C   0  0  0  0  0  0  0  0  0  0  0  0
   68.9175   47.5861   56.1502 C   0  0  0  0  0  0  0  0  0  0  0  0
   68.0293   46.5167   56.0182 O   0  0  0  0  0  0  0  0  0  0  0  0
   67.0383   48.1733   57.4837 N   0  0  0  0  0  0  0  0  0  0  0  0
   68.3869   48.6242   57.1102 C   0  0  0  0  0  0  0  0  0  0  0  0
 11 12  1  0  0  0
 12  9  1  0  0  0
  9 10  1  0  0  0
  9  1  1  0  0  0
  1  2  2  0  0  0
  1  8  1  0  0  0
  2  3  1  0  0  0
  3  4  2  0  0  0
  4  5  1  0  0  0
  4  6  1  0  0  0
  6  7  1  0  0  0
  6  8  2  0  0  0
M  CHG 1  11   1
M  END
> <minimizedAffinity>
-6.11839

$$$$
../data/sim29_sdf/CHEMBL2062273.pdb


 12 12  0  0  0  0  0  0  0  0999 V2000
   68.7943   47.7580   54.7773 C   0  0  0  0  0  0  0  0  0  0  0  0
   68.9924   49.1161   54.7299 C   0  0  0  0  0  0  0  0  0  0  0  0
   69.3591   49.7740   53.5807 C   0  0  0  0  0  0  0  0  0  0  0  0
   69.5378   49.0309   52.4125 C   0  0  0  0  0  0  0  0  0  0  0  0
   69.9101   49.6632   51.2259 O   0  0  0  0  0  0  0  0  0  0  0  0
   69.3483   47.6762   52.4299 C   0  0  0  0  0  0  0  0  0  0  0  0
   69.5314   46.9477   51.2529 O   0  0  0  0  0  0  0  0  0  0  0  0
   68.9803   47.0558   53.6045 C   0  0  0  0  0  0  0  0  0  0  0  0
   68.4034   47.1448   56.0558 C   0  0  0  0  0  0  0  0  0  0  0  0
   69.2830   46.1682   56.4906 O   0  0  0  0  0  0  0  0  0  0  0  0
   66.8946   48.2875   57.6258 N   0  0  0  0  0  0  0  0  0  0  0  0
   68.2141   48.2498   57.0641 C   0  0  0  0  0  0  0  0  0  0  0  0
 11 12  1  0  0  0
 12  9  1  0  0  0
  9 10  1  0  0  0
  9  1  1  0  0  0
  1  2  2  0  0  0
  1  8  1  0  0  0
  2  3  1  0  0  0
  3  4  2  0  0  0
  4  5  1  0  0  0
  4  6  1  0  0  0
  6  7  1  0  0  0
  6  8  2  0  0  0
M  CHG 1  11   1
M  END
> <minimizedAffinity>
-6.03697

$$$$
../data/sim29_sdf/CHEMBL2062273.pdb


 12 12  0  0  0  0  0  0  0  0999 V2000
   69.3326   48.0493   53.2835 C   0  0  0  0  0  0  0  0  0  0  0  0
   68.8641   47.0411   52.4596 C   0  0  0  0  0  0  0  0  0  0  0  0
   68.3269   45.8896   53.0060 C   0  0  0  0  0  0  0  0  0  0  0  0
   68.2349   45.6999   54.3706 C   0  0  0  0  0  0  0  0  0  0  0  0
   67.6828   44.5187   54.9041 O   0  0  0  0  0  0  0  0  0  0  0  0
   68.6984   46.6994   55.2009 C   0  0  0  0  0  0  0  0  0  0  0  0
   68.6087   46.5153   56.5878 O   0  0  0  0  0  0  0  0  0  0  0  0
   69.2325   47.8442   54.6459 C   0  0  0  0  0  0  0  0  0  0  0  0
   69.9198   49.3070   52.7209 C   0  0  0  0  0  0  0  0  0  0  0  0
   69.7378   49.3556   51.3449 O   0  0  0  0  0  0  0  0  0  0  0  0
   70.3354   51.5385   53.4928 N   0  0  0  0  0  0  0  0  0  0  0  0
   69.2848   50.5270   53.4024 C   0  0  0  0  0  0  0  0  0  0  0  0
 11 12  1  0  0  0
 12  9  1  0  0  0
  9 10  1  0  0  0
  9  1  1  0  0  0
  1  2  2  0  0  0
  1  8  1  0  0  0
  2  3  1  0  0  0
  3  4  2  0  0  0
  4  5  1  0  0  0
  4  6  1  0  0  0
  6  7  1  0  0  0
  6  8  2  0  0  0
M  CHG 1  11   1
M  END
> <minimizedAffinity>
-6.03009

$$$$
../data/sim29_sdf/CHEMBL288787.pdb


 11 11  0  0  0  0  0  0  0  0999 V2000
   69.0096   47.7004   54.7616 C   0  0  0  0  0  0  0  0  0  0  0  0
   69.1165   49.0750   54.7515 C   0  0  0  0  0  0  0  0  0  0  0  0
   69.3653   49.7944   53.5844 C   0  0  0  0  0  0  0  0  0  0  0  0
   69.5125   49.1222   52.3877 C   0  0  0  0  0  0  0  0  0  0  0  0
   69.7600   49.8215   51.2140 O   0  0  0  0  0  0  0  0  0  0  0  0
   69.4097   47.7431   52.3721 C   0  0  0  0  0  0  0  0  0  0  0  0
   69.5638   47.1014   51.1517 O   0  0  0  0  0  0  0  0  0  0  0  0
   69.1624   47.0480   53.5408 C   0  0  0  0  0  0  0  0  0  0  0  0
   68.4635   45.5709   55.7953 N   0  0  0  0  0  0  0  0  0  0  0  0
   68.7458   46.9856   56.0218 C   0  0  0  0  0  0  0  0  0  0  0  0
   67.6311   47.5534   56.6289 O   0  0  0  0  0  0  0  0  0  0  0  0
 10  9  1  0  0  0
 10 11  1  0  0  0
 10  1  1  0  0  0
  1  2  2  0  0  0
  1  8  1  0  0  0
  2  3  1  0  0  0
  3  4  2  0  0  0
  4  5  1  0  0  0
  4  6  1  0  0  0
  6  7  1  0  0  0
  6  8  2  0  0  0
M  CHG 1   9   1
M  END
> <minimizedAffinity>
-6.29565

$$$$
../data/sim29_sdf/CHEMBL432.pdb


 12 12  0  0  0  0  0  0  0  0999 V2000
   69.0370   47.7945   54.7009 C   0  0  0  0  0  0  0  0  0  0  0  0
   69.0443   49.1475   54.7066 C   0  0  0  0  0  0  0  0  0  0  0  0
   69.2859   49.8880   53.5459 C   0  0  0  0  0  0  0  0  0  0  0  0
   69.5222   49.2013   52.3745 C   0  0  0  0  0  0  0  0  0  0  0  0
   69.7688   49.8922   51.1881 O   0  0  0  0  0  0  0  0  0  0  0  0
   69.5274   47.8243   52.3088 C   0  0  0  0  0  0  0  0  0  0  0  0
   69.7700   47.1710   51.1075 O   0  0  0  0  0  0  0  0  0  0  0  0
   69.2837   47.1478   53.4809 C   0  0  0  0  0  0  0  0  0  0  0  0
   68.7949   46.8918   55.8388 C   0  0  0  0  0  0  0  0  0  0  0  0
   67.6830   47.4216   56.5309 O   0  0  0  0  0  0  0  0  0  0  0  0
   68.9494   44.6178   56.5881 N   0  0  0  0  0  0  0  0  0  0  0  0
   68.5487   45.4727   55.5111 C   0  0  0  0  0  0  0  0  0  0  0  0
 11 12  1  0  0  0
 12  9  1  0  0  0
  9 10  1  0  0  0
  9  1  1  0  0  0
  1  2  2  0  0  0
  1  8  1  0  0  0
  2  3  1  0  0  0
  3  4  2  0  0  0
  4  5  1  0  0  0
  4  6  1  0  0  0
  6  7  1  0  0  0
  6  8  2  0  0  0
M  CHG 1  11   1
M  END
> <minimizedAffinity>
-6.07443

$$$$
../data/sim29_sdf/CHEMBL2062274.pdb


 12 12  0  0  0  0  0  0  0  0999 V2000
   69.1024   48.2517   54.7796 C   0  0  0  0  0  0  0  0  0  0  0  0
   69.1306   49.6118   54.5587 C   0  0  0  0  0  0  0  0  0  0  0  0
   69.3295   50.1580   53.3102 C   0  0  0  0  0  0  0  0  0  0  0  0
   69.5111   49.3347   52.2178 C   0  0  0  0  0  0  0  0  0  0  0  0
   69.7069   49.9347   50.9855 O   0  0  0  0  0  0  0  0  0  0  0  0
   69.4880   47.9708   52.4085 C   0  0  0  0  0  0  0  0  0  0  0  0
   69.6676   47.1077   51.3361 O   0  0  0  0  0  0  0  0  0  0  0  0
   69.2846   47.4414   53.6890 C   0  0  0  0  0  0  0  0  0  0  0  0
   68.8879   47.6854   56.1305 C   0  0  0  0  0  0  0  0  0  0  0  0
   68.2075   46.4747   56.1157 O   0  0  0  0  0  0  0  0  0  0  0  0
   66.9862   48.1933   57.5302 N   0  0  0  0  0  0  0  0  0  0  0  0
   68.2617   48.6975   57.0681 C   0  0  0  0  0  0  0  0  0  0  0  0
 11 12  1  0  0  0
 12  9  1  0  0  0
  9 10  1  0  0  0
  9  1  1  0  0  0
  1  2  2  0  0  0
  1  8  1  0  0  0
  2  3  1  0  0  0
  3  4  2  0  0  0
  4  5  1  0  0  0
  4  6  1  0  0  0
  6  7  1  0  0  0
  6  8  2  0  0  0
M  CHG 1  11   1
M  END
> <minimizedAffinity>
-6.14819

$$$$
../data/sim29_sdf/CHEMBL2062274.pdb


 12 12  0  0  0  0  0  0  0  0999 V2000
   69.1022   48.1577   54.7633 C   0  0  0  0  0  0  0  0  0  0  0  0
   69.1524   49.5516   54.6428 C   0  0  0  0  0  0  0  0  0  0  0  0
   69.3580   50.0927   53.4003 C   0  0  0  0  0  0  0  0  0  0  0  0
   69.5175   49.3123   52.2655 C   0  0  0  0  0  0  0  0  0  0  0  0
   69.7261   49.8558   51.0047 O   0  0  0  0  0  0  0  0  0  0  0  0
   69.4675   47.9626   52.3857 C   0  0  0  0  0  0  0  0  0  0  0  0
   69.6215   47.1257   51.2797 O   0  0  0  0  0  0  0  0  0  0  0  0
   69.2585   47.3925   53.6437 C   0  0  0  0  0  0  0  0  0  0  0  0
   68.8845   47.5686   56.1136 C   0  0  0  0  0  0  0  0  0  0  0  0
   68.0804   46.4342   55.9846 O   0  0  0  0  0  0  0  0  0  0  0  0
   66.9974   48.1921   57.5213 N   0  0  0  0  0  0  0  0  0  0  0  0
   68.3162   48.5776   57.0501 C   0  0  0  0  0  0  0  0  0  0  0  0
 11 12  1  0  0  0
 12  9  1  0  0  0
  9 10  1  0  0  0
  9  1  1  0  0  0
  1  2  2  0  0  0
  1  8  1  0  0  0
  2  3  1  0  0  0
  3  4  2  0  0  0
  4  5  1  0  0  0
  4  6  1  0  0  0
  6  7  1  0  0  0
  6  8  2  0  0  0
M  CHG 1  11   1
M  END
> <minimizedAffinity>
-6.15740

$$$$
../data/sim29_sdf/CHEMBL2062274.pdb


 12 12  0  0  0  0  0  0  0  0999 V2000
   69.1076   48.1427   54.7716 C   0  0  0  0  0  0  0  0  0  0  0  0
   69.1653   49.5123   54.6042 C   0  0  0  0  0  0  0  0  0  0  0  0
   69.3612   50.0931   53.3663 C   0  0  0  0  0  0  0  0  0  0  0  0
   69.5081   49.3156   52.2391 C   0  0  0  0  0  0  0  0  0  0  0  0
   69.7074   49.9016   50.9780 O   0  0  0  0  0  0  0  0  0  0  0  0
   69.4531   47.9461   52.3896 C   0  0  0  0  0  0  0  0  0  0  0  0
   69.6008   47.1548   51.2558 O   0  0  0  0  0  0  0  0  0  0  0  0
   69.2569   47.3761   53.6313 C   0  0  0  0  0  0  0  0  0  0  0  0
   68.8969   47.5157   56.1045 C   0  0  0  0  0  0  0  0  0  0  0  0
   68.1821   46.3531   56.0500 O   0  0  0  0  0  0  0  0  0  0  0  0
   66.9934   48.1827   57.5171 N   0  0  0  0  0  0  0  0  0  0  0  0
   68.2671   48.5652   56.9924 C   0  0  0  0  0  0  0  0  0  0  0  0
 11 12  1  0  0  0
 12  9  1  0  0  0
  9 10  1  0  0  0
  9  1  1  0  0  0
  1  2  2  0  0  0
  1  8  1  0  0  0
  2  3  1  0  0  0
  3  4  2  0  0  0
  4  5  1  0  0  0
  4  6  1  0  0  0
  6  7  1  0  0  0
  6  8  2  0  0  0
M  CHG 1  11   1
M  END
> <minimizedAffinity>
-6.16181

$$$$
../data/sim29_sdf/CHEMBL2062274.pdb


 12 12  0  0  0  0  0  0  0  0999 V2000
   69.0838   48.1888   54.8148 C   0  0  0  0  0  0  0  0  0  0  0  0
   69.1556   49.5445   54.6490 C   0  0  0  0  0  0  0  0  0  0  0  0
   69.3658   50.1074   53.4101 C   0  0  0  0  0  0  0  0  0  0  0  0
   69.5101   49.2982   52.3052 C   0  0  0  0  0  0  0  0  0  0  0  0
   69.7237   49.8670   51.0474 O   0  0  0  0  0  0  0  0  0  0  0  0
   69.4456   47.9331   52.4264 C   0  0  0  0  0  0  0  0  0  0  0  0
   69.5907   47.1004   51.3009 O   0  0  0  0  0  0  0  0  0  0  0  0
   69.2332   47.3975   53.6789 C   0  0  0  0  0  0  0  0  0  0  0  0
   68.8636   47.4954   56.0900 C   0  0  0  0  0  0  0  0  0  0  0  0
   67.9376   46.4920   55.8898 O   0  0  0  0  0  0  0  0  0  0  0  0
   67.0125   48.1880   57.4950 N   0  0  0  0  0  0  0  0  0  0  0  0
   68.3830   48.4356   57.1712 C   0  0  0  0  0  0  0  0  0  0  0  0
 11 12  1  0  0  0
 12  9  1  0  0  0
  9 10  1  0  0  0
  9  1  1  0  0  0
  1  2  2  0  0  0
  1  8  1  0  0  0
  2  3  1  0  0  0
  3  4  2  0  0  0
  4  5  1  0  0  0
  4  6  1  0  0  0
  6  7  1  0  0  0
  6  8  2  0  0  0
M  CHG 1  11   1
M  END
> <minimizedAffinity>
-6.17539

$$$$
../data/sim29_sdf/CHEMBL1320902.pdb


 13 13  0  0  0  0  0  0  0  0999 V2000
   69.1184   49.6565   54.7059 C   0  0  0  0  0  0  0  0  0  0  0  0
   69.0643   48.3068   54.8241 C   0  0  0  0  0  0  0  0  0  0  0  0
   69.2254   47.4688   53.7435 C   0  0  0  0  0  0  0  0  0  0  0  0
   69.4543   48.0130   52.4769 C   0  0  0  0  0  0  0  0  0  0  0  0
   69.6160   47.1635   51.3942 O   0  0  0  0  0  0  0  0  0  0  0  0
   69.5157   49.3713   52.3157 C   0  0  0  0  0  0  0  0  0  0  0  0
   69.7435   49.9209   51.0523 O   0  0  0  0  0  0  0  0  0  0  0  0
   69.3478   50.1666   53.4281 C   0  0  0  0  0  0  0  0  0  0  0  0
   68.9650   50.6502   55.7815 C   0  0  0  0  0  0  0  0  0  0  0  0
   68.1330   51.6787   55.2923 O   0  0  0  0  0  0  0  0  0  0  0  0
   67.1542   51.0511   57.3424 C   0  0  0  0  0  0  0  0  0  0  0  0
   68.3565   50.1500   57.0373 C   0  0  0  0  0  0  0  0  0  0  0  0
   69.2129   50.1659   58.1891 N   0  0  0  0  0  0  0  0  0  0  0  0
 12 11  1  0  0  0
 12 13  1  0  0  0
 12  9  1  0  0  0
  9 10  1  0  0  0
  9  1  1  0  0  0
  1  2  2  0  0  0
  1  8  1  0  0  0
  2  3  1  0  0  0
  3  4  2  0  0  0
  4  5  1  0  0  0
  4  6  1  0  0  0
  6  7  1  0  0  0
  6  8  2  0  0  0
M  CHG 1  13   1
M  END
> <minimizedAffinity>
-6.26105

$$$$
../data/sim29_sdf/CHEMBL764.pdb


 13 13  0  0  0  0  0  0  0  0999 V2000
   68.8708   47.9141   54.9983 C   0  0  0  0  0  0  0  0  0  0  0  0
   68.1329   46.8016   54.6504 C   0  0  0  0  0  0  0  0  0  0  0  0
   68.0258   46.3997   53.3185 C   0  0  0  0  0  0  0  0  0  0  0  0
   68.6789   47.1498   52.3668 C   0  0  0  0  0  0  0  0  0  0  0  0
   68.6034   46.7879   51.0080 O   0  0  0  0  0  0  0  0  0  0  0  0
   69.4266   48.2671   52.6692 C   0  0  0  0  0  0  0  0  0  0  0  0
   70.0860   49.0187   51.6774 O   0  0  0  0  0  0  0  0  0  0  0  0
   69.5046   48.6290   54.0056 C   0  0  0  0  0  0  0  0  0  0  0  0
   68.9566   48.3034   56.4235 C   0  0  0  0  0  0  0  0  0  0  0  0
   67.9153   47.6155   57.0792 O   0  0  0  0  0  0  0  0  0  0  0  0
   67.5798   50.0067   57.6128 C   0  0  0  0  0  0  0  0  0  0  0  0
   68.7085   49.7793   56.6288 C   0  0  0  0  0  0  0  0  0  0  0  0
   69.9019   50.3960   57.1764 N   0  0  0  0  0  0  0  0  0  0  0  0
 12 11  1  0  0  0
 12 13  1  0  0  0
 12  9  1  0  0  0
  9 10  1  0  0  0
  9  1  1  0  0  0
  1  2  2  0  0  0
  1  8  1  0  0  0
  2  3  1  0  0  0
  3  4  2  0  0  0
  4  5  1  0  0  0
  4  6  1  0  0  0
  6  7  1  0  0  0
  6  8  2  0  0  0
M  CHG 1  13   1
M  END
> <minimizedAffinity>
-6.17796

$$$$
../data/sim29_sdf/CHEMBL764.pdb


 13 13  0  0  0  0  0  0  0  0999 V2000
   68.7973   47.9932   55.4183 C   0  0  0  0  0  0  0  0  0  0  0  0
   68.1392   46.9807   54.7533 C   0  0  0  0  0  0  0  0  0  0  0  0
   68.3747   46.6691   53.4329 C   0  0  0  0  0  0  0  0  0  0  0  0
   69.3127   47.3954   52.7266 C   0  0  0  0  0  0  0  0  0  0  0  0
   69.5767   47.1022   51.3778 O   0  0  0  0  0  0  0  0  0  0  0  0
   69.9827   48.4122   53.3703 C   0  0  0  0  0  0  0  0  0  0  0  0
   70.9367   49.1618   52.6792 O   0  0  0  0  0  0  0  0  0  0  0  0
   69.7295   48.7079   54.6989 C   0  0  0  0  0  0  0  0  0  0  0  0
   68.4789   48.2568   56.8284 C   0  0  0  0  0  0  0  0  0  0  0  0
   67.1715   47.8992   57.1455 O   0  0  0  0  0  0  0  0  0  0  0  0
   67.4923   50.4676   57.4969 C   0  0  0  0  0  0  0  0  0  0  0  0
   68.7514   49.7161   57.1197 C   0  0  0  0  0  0  0  0  0  0  0  0
   69.7679   49.8028   58.1277 N   0  0  0  0  0  0  0  0  0  0  0  0
 12 11  1  0  0  0
 12 13  1  0  0  0
 12  9  1  0  0  0
  9 10  1  0  0  0
  9  1  1  0  0  0
  1  2  2  0  0  0
  1  8  1  0  0  0
  2  3  1  0  0  0
  3  4  2  0  0  0
  4  5  1  0  0  0
  4  6  1  0  0  0
  6  7  1  0  0  0
  6  8  2  0  0  0
M  CHG 1  13   1
M  END
> <minimizedAffinity>
-6.24296

$$$$
../data/sim29_sdf/CHEMBL1434513.pdb


 12 12  0  0  0  0  0  0  0  0999 V2000
   69.3748   48.0218   53.3042 C   0  0  0  0  0  0  0  0  0  0  0  0
   68.8904   47.0369   52.4705 C   0  0  0  0  0  0  0  0  0  0  0  0
   68.3318   45.8985   52.9704 C   0  0  0  0  0  0  0  0  0  0  0  0
   68.2331   45.6954   54.3220 C   0  0  0  0  0  0  0  0  0  0  0  0
   67.6667   44.5405   54.8674 O   0  0  0  0  0  0  0  0  0  0  0  0
   68.7090   46.6625   55.1992 C   0  0  0  0  0  0  0  0  0  0  0  0
   68.6238   46.4855   56.5717 O   0  0  0  0  0  0  0  0  0  0  0  0
   69.2708   47.8073   54.6587 C   0  0  0  0  0  0  0  0  0  0  0  0
   69.9807   49.2586   52.7702 C   0  0  0  0  0  0  0  0  0  0  0  0
   69.7576   49.2727   51.3887 O   0  0  0  0  0  0  0  0  0  0  0  0
   70.3276   51.5514   53.4533 N   0  0  0  0  0  0  0  0  0  0  0  0
   69.3404   50.4903   53.3517 C   0  0  0  0  0  0  0  0  0  0  0  0
 11 12  1  0  0  0
 12  9  1  0  0  0
  9 10  1  0  0  0
  9  1  1  0  0  0
  1  2  2  0  0  0
  1  8  1  0  0  0
  2  3  1  0  0  0
  3  4  2  0  0  0
  4  5  1  0  0  0
  4  6  1  0  0  0
  6  7  1  0  0  0
  6  8  2  0  0  0
M  CHG 1  11   1
M  END
> <minimizedAffinity>
-5.98668

$$$$
../data/sim29_sdf/CHEMBL1434513.pdb


 12 12  0  0  0  0  0  0  0  0999 V2000
   69.3251   48.0213   53.2238 C   0  0  0  0  0  0  0  0  0  0  0  0
   68.8776   47.0109   52.4154 C   0  0  0  0  0  0  0  0  0  0  0  0
   68.3386   45.8675   52.9828 C   0  0  0  0  0  0  0  0  0  0  0  0
   68.2313   45.6991   54.3382 C   0  0  0  0  0  0  0  0  0  0  0  0
   67.6825   44.5335   54.8962 O   0  0  0  0  0  0  0  0  0  0  0  0
   68.6762   46.7055   55.1520 C   0  0  0  0  0  0  0  0  0  0  0  0
   68.5912   46.5871   56.5391 O   0  0  0  0  0  0  0  0  0  0  0  0
   69.2159   47.8500   54.6047 C   0  0  0  0  0  0  0  0  0  0  0  0
   69.9138   49.2781   52.7629 C   0  0  0  0  0  0  0  0  0  0  0  0
   69.7696   49.3532   51.3827 O   0  0  0  0  0  0  0  0  0  0  0  0
   70.3971   51.4708   53.5564 N   0  0  0  0  0  0  0  0  0  0  0  0
   69.3075   50.5021   53.3629 C   0  0  0  0  0  0  0  0  0  0  0  0
 11 12  1  0  0  0
 12  9  1  0  0  0
  9 10  1  0  0  0
  9  1  1  0  0  0
  1  2  2  0  0  0
  1  8  1  0  0  0
  2  3  1  0  0  0
  3  4  2  0  0  0
  4  5  1  0  0  0
  4  6  1  0  0  0
  6  7  1  0  0  0
  6  8  2  0  0  0
M  CHG 1  11   1
M  END
> <minimizedAffinity>
-6.04489

$$$$
../data/sim29_sdf/CHEMBL1734806.pdb


 12 12  0  0  0  0  0  0  0  0999 V2000
   69.3220   47.9893   53.2758 C   0  0  0  0  0  0  0  0  0  0  0  0
   68.8514   46.9689   52.4756 C   0  0  0  0  0  0  0  0  0  0  0  0
   68.3108   45.8236   53.0201 C   0  0  0  0  0  0  0  0  0  0  0  0
   68.2207   45.6522   54.3865 C   0  0  0  0  0  0  0  0  0  0  0  0
   67.6746   44.4961   54.9394 O   0  0  0  0  0  0  0  0  0  0  0  0
   68.6815   46.6518   55.1887 C   0  0  0  0  0  0  0  0  0  0  0  0
   68.6110   46.5229   56.5683 O   0  0  0  0  0  0  0  0  0  0  0  0
   69.2163   47.7864   54.6447 C   0  0  0  0  0  0  0  0  0  0  0  0
   69.9037   49.2235   52.7453 C   0  0  0  0  0  0  0  0  0  0  0  0
   69.7622   49.3064   51.3435 O   0  0  0  0  0  0  0  0  0  0  0  0
   70.2816   51.5447   53.4581 N   0  0  0  0  0  0  0  0  0  0  0  0
   69.3377   50.4718   53.3769 C   0  0  0  0  0  0  0  0  0  0  0  0
 11 12  1  0  0  0
 12  9  1  0  0  0
  9 10  1  0  0  0
  9  1  1  0  0  0
  1  2  2  0  0  0
  1  8  1  0  0  0
  2  3  1  0  0  0
  3  4  2  0  0  0
  4  5  1  0  0  0
  4  6  1  0  0  0
  6  7  1  0  0  0
  6  8  2  0  0  0
M  CHG 1  11   1
M  END
> <minimizedAffinity>
-6.04870

$$$$
../data/sim29_sdf/CHEMBL1356607.pdb


 12 12  0  0  0  0  0  0  0  0999 V2000
   69.0575   47.6536   54.6608 C   0  0  0  0  0  0  0  0  0  0  0  0
   69.0545   49.0260   54.7485 C   0  0  0  0  0  0  0  0  0  0  0  0
   69.2946   49.7553   53.6098 C   0  0  0  0  0  0  0  0  0  0  0  0
   69.5336   49.1483   52.4052 C   0  0  0  0  0  0  0  0  0  0  0  0
   69.7787   49.8800   51.2461 O   0  0  0  0  0  0  0  0  0  0  0  0
   69.5369   47.7618   52.3185 C   0  0  0  0  0  0  0  0  0  0  0  0
   69.7816   47.1346   51.0836 O   0  0  0  0  0  0  0  0  0  0  0  0
   69.2946   47.0394   53.4645 C   0  0  0  0  0  0  0  0  0  0  0  0
   68.8047   46.7975   55.8534 C   0  0  0  0  0  0  0  0  0  0  0  0
   67.8142   47.3685   56.6321 O   0  0  0  0  0  0  0  0  0  0  0  0
   68.7391   44.3932   56.3325 N   0  0  0  0  0  0  0  0  0  0  0  0
   68.4358   45.4122   55.3791 C   0  0  0  0  0  0  0  0  0  0  0  0
 11 12  1  0  0  0
 12  9  1  0  0  0
  9 10  1  0  0  0
  9  1  1  0  0  0
  1  2  2  0  0  0
  1  8  1  0  0  0
  2  3  1  0  0  0
  3  4  2  0  0  0
  4  5  1  0  0  0
  4  6  1  0  0  0
  6  7  1  0  0  0
  6  8  2  0  0  0
M  CHG 1  11   1
M  END
> <minimizedAffinity>
-6.13688

$$$$
../data/sim29_sdf/CHEMBL1356607.pdb


 12 12  0  0  0  0  0  0  0  0999 V2000
   69.3356   48.0358   53.2473 C   0  0  0  0  0  0  0  0  0  0  0  0
   68.8764   47.0054   52.4489 C   0  0  0  0  0  0  0  0  0  0  0  0
   68.3349   45.8637   53.0115 C   0  0  0  0  0  0  0  0  0  0  0  0
   68.2292   45.6993   54.3707 C   0  0  0  0  0  0  0  0  0  0  0  0
   67.6777   44.5308   54.8770 O   0  0  0  0  0  0  0  0  0  0  0  0
   68.6862   46.7236   55.1759 C   0  0  0  0  0  0  0  0  0  0  0  0
   68.5734   46.5472   56.5496 O   0  0  0  0  0  0  0  0  0  0  0  0
   69.2279   47.8670   54.6090 C   0  0  0  0  0  0  0  0  0  0  0  0
   69.9209   49.2748   52.7374 C   0  0  0  0  0  0  0  0  0  0  0  0
   69.7563   49.3153   51.3627 O   0  0  0  0  0  0  0  0  0  0  0  0
   70.3448   51.5653   53.5071 N   0  0  0  0  0  0  0  0  0  0  0  0
   69.3482   50.5227   53.3431 C   0  0  0  0  0  0  0  0  0  0  0  0
 11 12  1  0  0  0
 12  9  1  0  0  0
  9 10  1  0  0  0
  9  1  1  0  0  0
  1  2  2  0  0  0
  1  8  1  0  0  0
  2  3  1  0  0  0
  3  4  2  0  0  0
  4  5  1  0  0  0
  4  6  1  0  0  0
  6  7  1  0  0  0
  6  8  2  0  0  0
M  CHG 1  11   1
M  END
> <minimizedAffinity>
-6.01030

$$$$
../data/sim29_sdf/CHEMBL1356607.pdb


 12 12  0  0  0  0  0  0  0  0999 V2000
   69.3302   48.0269   53.3099 C   0  0  0  0  0  0  0  0  0  0  0  0
   68.8738   47.0143   52.4825 C   0  0  0  0  0  0  0  0  0  0  0  0
   68.3219   45.8504   53.0040 C   0  0  0  0  0  0  0  0  0  0  0  0
   68.2295   45.7039   54.3713 C   0  0  0  0  0  0  0  0  0  0  0  0
   67.6800   44.5452   54.8879 O   0  0  0  0  0  0  0  0  0  0  0  0
   68.6776   46.6994   55.2142 C   0  0  0  0  0  0  0  0  0  0  0  0
   68.5960   46.5765   56.5914 O   0  0  0  0  0  0  0  0  0  0  0  0
   69.2258   47.8544   54.6585 C   0  0  0  0  0  0  0  0  0  0  0  0
   69.9090   49.2482   52.7408 C   0  0  0  0  0  0  0  0  0  0  0  0
   69.7646   49.3140   51.3605 O   0  0  0  0  0  0  0  0  0  0  0  0
   70.3304   51.5195   53.4947 N   0  0  0  0  0  0  0  0  0  0  0  0
   69.3212   50.5063   53.3860 C   0  0  0  0  0  0  0  0  0  0  0  0
 11 12  1  0  0  0
 12  9  1  0  0  0
  9 10  1  0  0  0
  9  1  1  0  0  0
  1  2  2  0  0  0
  1  8  1  0  0  0
  2  3  1  0  0  0
  3  4  2  0  0  0
  4  5  1  0  0  0
  4  6  1  0  0  0
  6  7  1  0  0  0
  6  8  2  0  0  0
M  CHG 1  11   1
M  END
> <minimizedAffinity>
-6.03488

$$$$
../data/sim29_sdf/CHEMBL1356607.pdb


 12 12  0  0  0  0  0  0  0  0999 V2000
   69.3579   47.9452   53.5343 C   0  0  0  0  0  0  0  0  0  0  0  0
   68.9969   47.8003   52.2025 C   0  0  0  0  0  0  0  0  0  0  0  0
   68.2479   46.7160   51.7901 C   0  0  0  0  0  0  0  0  0  0  0  0
   67.8353   45.7438   52.6820 C   0  0  0  0  0  0  0  0  0  0  0  0
   67.0837   44.6743   52.2117 O   0  0  0  0  0  0  0  0  0  0  0  0
   68.1890   45.8827   53.9937 C   0  0  0  0  0  0  0  0  0  0  0  0
   67.7950   44.9343   54.9101 O   0  0  0  0  0  0  0  0  0  0  0  0
   68.9364   46.9670   54.3996 C   0  0  0  0  0  0  0  0  0  0  0  0
   70.1515   49.1158   53.9071 C   0  0  0  0  0  0  0  0  0  0  0  0
   71.2865   49.2021   53.1270 O   0  0  0  0  0  0  0  0  0  0  0  0
   70.1757   51.4794   53.2640 N   0  0  0  0  0  0  0  0  0  0  0  0
   69.3980   50.4093   53.8204 C   0  0  0  0  0  0  0  0  0  0  0  0
 11 12  1  0  0  0
 12  9  1  0  0  0
  9 10  1  0  0  0
  9  1  1  0  0  0
  1  2  2  0  0  0
  1  8  1  0  0  0
  2  3  1  0  0  0
  3  4  2  0  0  0
  4  5  1  0  0  0
  4  6  1  0  0  0
  6  7  1  0  0  0
  6  8  2  0  0  0
M  CHG 1  11   1
M  END
> <minimizedAffinity>
-5.99420

$$$$
../data/sim29_sdf/CHEMBL1545498.pdb


 11 11  0  0  0  0  0  0  0  0999 V2000
   68.8636   47.9307   54.9226 C   0  0  0  0  0  0  0  0  0  0  0  0
   68.9972   49.2886   54.7976 C   0  0  0  0  0  0  0  0  0  0  0  0
   69.3159   49.9222   53.6094 C   0  0  0  0  0  0  0  0  0  0  0  0
   69.5044   49.1404   52.5084 C   0  0  0  0  0  0  0  0  0  0  0  0
   69.8292   49.7381   51.2805 O   0  0  0  0  0  0  0  0  0  0  0  0
   69.3862   47.7666   52.5562 C   0  0  0  0  0  0  0  0  0  0  0  0
   69.5956   47.0227   51.3788 N   0  0  0  0  0  0  0  0  0  0  0  0
   69.0648   47.1793   53.7710 C   0  0  0  0  0  0  0  0  0  0  0  0
   67.9290   48.3901   57.1273 C   0  0  0  0  0  0  0  0  0  0  0  0
   68.5245   47.3453   56.2127 C   0  0  0  0  0  0  0  0  0  0  0  0
   69.7134   46.7442   56.9316 C   0  0  0  0  0  0  0  0  0  0  0  0
  9 10  1  0  0  0
 10 11  1  0  0  0
 10  1  1  0  0  0
  1  2  2  0  0  0
  1  8  1  0  0  0
  2  3  1  0  0  0
  3  4  2  0  0  0
  4  5  1  0  0  0
  4  6  1  0  0  0
  6  7  1  0  0  0
  6  8  2  0  0  0
M  END
> <minimizedAffinity>
-5.87373

$$$$
../data/sim29_sdf/CHEMBL2130595.pdb


 12 12  0  0  0  0  0  0  0  0999 V2000
   69.3317   48.0516   53.2748 C   0  0  0  0  0  0  0  0  0  0  0  0
   68.8503   47.0314   52.4793 C   0  0  0  0  0  0  0  0  0  0  0  0
   68.3114   45.8748   53.0040 C   0  0  0  0  0  0  0  0  0  0  0  0
   68.2291   45.6845   54.3673 C   0  0  0  0  0  0  0  0  0  0  0  0
   67.6829   44.5101   54.8957 O   0  0  0  0  0  0  0  0  0  0  0  0
   68.7049   46.6922   55.1768 C   0  0  0  0  0  0  0  0  0  0  0  0
   68.6228   46.5043   56.5478 O   0  0  0  0  0  0  0  0  0  0  0  0
   69.2410   47.8442   54.6419 C   0  0  0  0  0  0  0  0  0  0  0  0
   69.9104   49.2979   52.7080 C   0  0  0  0  0  0  0  0  0  0  0  0
   69.7257   49.3693   51.3272 O   0  0  0  0  0  0  0  0  0  0  0  0
   70.3231   51.5746   53.5122 N   0  0  0  0  0  0  0  0  0  0  0  0
   69.3262   50.5287   53.3890 C   0  0  0  0  0  0  0  0  0  0  0  0
 11 12  1  0  0  0
 12  9  1  0  0  0
  9 10  1  0  0  0
  9  1  1  0  0  0
  1  2  2  0  0  0
  1  8  1  0  0  0
  2  3  1  0  0  0
  3  4  2  0  0  0
  4  5  1  0  0  0
  4  6  1  0  0  0
  6  7  1  0  0  0
  6  8  2  0  0  0
M  CHG 1  11   1
M  END
> <minimizedAffinity>
-6.02128

$$$$
../data/sim29_sdf/CHEMBL2130595.pdb


 12 12  0  0  0  0  0  0  0  0999 V2000
   69.3246   47.9876   53.2827 C   0  0  0  0  0  0  0  0  0  0  0  0
   68.8505   46.9968   52.4478 C   0  0  0  0  0  0  0  0  0  0  0  0
   68.3143   45.8573   53.0146 C   0  0  0  0  0  0  0  0  0  0  0  0
   68.2350   45.6733   54.3777 C   0  0  0  0  0  0  0  0  0  0  0  0
   67.6954   44.5277   54.9265 O   0  0  0  0  0  0  0  0  0  0  0  0
   68.7081   46.6629   55.2230 C   0  0  0  0  0  0  0  0  0  0  0  0
   68.6227   46.4660   56.5900 O   0  0  0  0  0  0  0  0  0  0  0  0
   69.2407   47.7931   54.6561 C   0  0  0  0  0  0  0  0  0  0  0  0
   69.9066   49.2221   52.7393 C   0  0  0  0  0  0  0  0  0  0  0  0
   69.8179   49.2285   51.3489 O   0  0  0  0  0  0  0  0  0  0  0  0
   70.2685   51.5607   53.4094 N   0  0  0  0  0  0  0  0  0  0  0  0
   69.3412   50.4749   53.3527 C   0  0  0  0  0  0  0  0  0  0  0  0
 11 12  1  0  0  0
 12  9  1  0  0  0
  9 10  1  0  0  0
  9  1  1  0  0  0
  1  2  2  0  0  0
  1  8  1  0  0  0
  2  3  1  0  0  0
  3  4  2  0  0  0
  4  5  1  0  0  0
  4  6  1  0  0  0
  6  7  1  0  0  0
  6  8  2  0  0  0
M  CHG 1  11   1
M  END
> <minimizedAffinity>
-6.05045

$$$$
../data/sim29_sdf/CHEMBL2130595.pdb


 12 12  0  0  0  0  0  0  0  0999 V2000
   69.3195   48.0914   53.3616 C   0  0  0  0  0  0  0  0  0  0  0  0
   68.8725   47.0998   52.5140 C   0  0  0  0  0  0  0  0  0  0  0  0
   68.3393   45.9308   53.0025 C   0  0  0  0  0  0  0  0  0  0  0  0
   68.2367   45.7166   54.3891 C   0  0  0  0  0  0  0  0  0  0  0  0
   67.7034   44.5467   54.8686 O   0  0  0  0  0  0  0  0  0  0  0  0
   68.6767   46.6912   55.2576 C   0  0  0  0  0  0  0  0  0  0  0  0
   68.6187   46.5757   56.6397 O   0  0  0  0  0  0  0  0  0  0  0  0
   69.2033   47.8457   54.6978 C   0  0  0  0  0  0  0  0  0  0  0  0
   69.8811   49.3225   52.7723 C   0  0  0  0  0  0  0  0  0  0  0  0
   69.7735   49.3398   51.3823 O   0  0  0  0  0  0  0  0  0  0  0  0
   70.4634   51.4971   53.5754 N   0  0  0  0  0  0  0  0  0  0  0  0
   69.3421   50.5736   53.3791 C   0  0  0  0  0  0  0  0  0  0  0  0
 11 12  1  0  0  0
 12  9  1  0  0  0
  9 10  1  0  0  0
  9  1  1  0  0  0
  1  2  2  0  0  0
  1  8  1  0  0  0
  2  3  1  0  0  0
  3  4  2  0  0  0
  4  5  1  0  0  0
  4  6  1  0  0  0
  6  7  1  0  0  0
  6  8  2  0  0  0
M  CHG 1  11   1
M  END
> <minimizedAffinity>
-6.02655

$$$$
../data/sim29_sdf/CHEMBL2130595.pdb


 12 12  0  0  0  0  0  0  0  0999 V2000
   69.3342   47.9348   53.5013 C   0  0  0  0  0  0  0  0  0  0  0  0
   68.9891   47.7939   52.1773 C   0  0  0  0  0  0  0  0  0  0  0  0
   68.2504   46.7276   51.7444 C   0  0  0  0  0  0  0  0  0  0  0  0
   67.8447   45.7770   52.6622 C   0  0  0  0  0  0  0  0  0  0  0  0
   67.0853   44.6902   52.1878 O   0  0  0  0  0  0  0  0  0  0  0  0
   68.1830   45.9099   53.9782 C   0  0  0  0  0  0  0  0  0  0  0  0
   67.7556   44.9258   54.8848 O   0  0  0  0  0  0  0  0  0  0  0  0
   68.9231   46.9805   54.3995 C   0  0  0  0  0  0  0  0  0  0  0  0
   70.1432   49.1240   53.9104 C   0  0  0  0  0  0  0  0  0  0  0  0
   71.2497   49.1577   53.0732 O   0  0  0  0  0  0  0  0  0  0  0  0
   70.1261   51.4456   53.3493 N   0  0  0  0  0  0  0  0  0  0  0  0
   69.2578   50.3444   53.7137 C   0  0  0  0  0  0  0  0  0  0  0  0
 11 12  1  0  0  0
 12  9  1  0  0  0
  9 10  1  0  0  0
  9  1  1  0  0  0
  1  2  2  0  0  0
  1  8  1  0  0  0
  2  3  1  0  0  0
  3  4  2  0  0  0
  4  5  1  0  0  0
  4  6  1  0  0  0
  6  7  1  0  0  0
  6  8  2  0  0  0
M  CHG 1  11   1
M  END
> <minimizedAffinity>
-6.00397

$$$$
../data/sim29_sdf/CHEMBL18824.pdb


 12 12  0  0  0  0  0  0  0  0999 V2000
   69.1014   48.1643   54.8107 C   0  0  0  0  0  0  0  0  0  0  0  0
   69.1643   49.5083   54.6432 C   0  0  0  0  0  0  0  0  0  0  0  0
   69.3680   50.0657   53.3827 C   0  0  0  0  0  0  0  0  0  0  0  0
   69.5110   49.2797   52.2799 C   0  0  0  0  0  0  0  0  0  0  0  0
   69.7127   49.8652   51.0365 O   0  0  0  0  0  0  0  0  0  0  0  0
   69.4504   47.9213   52.4292 C   0  0  0  0  0  0  0  0  0  0  0  0
   69.5932   47.0873   51.3142 O   0  0  0  0  0  0  0  0  0  0  0  0
   69.2502   47.3766   53.6665 C   0  0  0  0  0  0  0  0  0  0  0  0
   68.8945   47.5052   56.0991 C   0  0  0  0  0  0  0  0  0  0  0  0
   67.9080   46.5038   55.8723 O   0  0  0  0  0  0  0  0  0  0  0  0
   66.9691   48.1891   57.4945 N   0  0  0  0  0  0  0  0  0  0  0  0
   68.3625   48.3507   57.2005 C   0  0  0  0  0  0  0  0  0  0  0  0
 11 12  1  0  0  0
 12  9  1  0  0  0
  9 10  1  0  0  0
  9  1  1  0  0  0
  1  2  2  0  0  0
  1  8  1  0  0  0
  2  3  1  0  0  0
  3  4  2  0  0  0
  4  5  1  0  0  0
  4  6  1  0  0  0
  6  7  1  0  0  0
  6  8  2  0  0  0
M  CHG 1  11   1
M  END
> <minimizedAffinity>
-6.14868

$$$$
../data/sim29_sdf/CHEMBL85811.pdb


 16 17  0  0  0  0  0  0  0  0999 V2000
   67.3176   45.3087   52.3834 N   0  0  0  0  0  0  0  0  0  0  0  0
   68.0558   46.3366   53.0447 C   0  0  0  0  0  0  0  0  0  0  0  0
   67.8823   46.5901   54.3873 C   0  0  0  0  0  0  0  0  0  0  0  0
   68.5773   47.5696   55.0346 C   0  0  0  0  0  0  0  0  0  0  0  0
   69.4942   48.3598   54.3667 C   0  0  0  0  0  0  0  0  0  0  0  0
   69.6763   48.1158   53.0246 C   0  0  0  0  0  0  0  0  0  0  0  0
   68.9725   47.1256   52.3734 C   0  0  0  0  0  0  0  0  0  0  0  0
   69.1376   46.8581   51.0145 O   0  0  0  0  0  0  0  0  0  0  0  0
   70.2320   49.4027   55.0801 C   0  0  0  0  0  0  0  0  0  0  0  0
   70.1179   49.5642   56.4445 C   0  0  0  0  0  0  0  0  0  0  0  0
   70.8181   50.5556   57.1215 C   0  0  0  0  0  0  0  0  0  0  0  0
   71.6444   51.3950   56.4043 C   0  0  0  0  0  0  0  0  0  0  0  0
   72.3898   52.4338   57.0479 N   0  0  0  0  0  0  0  0  0  0  0  0
   71.7900   51.2724   55.0372 C   0  0  0  0  0  0  0  0  0  0  0  0
   72.6280   52.1229   54.3082 O   0  0  0  0  0  0  0  0  0  0  0  0
   71.0805   50.2793   54.4101 C   0  0  0  0  0  0  0  0  0  0  0  0
  1  2  1  0  0  0
  2  3  2  0  0  0
  2  7  1  0  0  0
  3  4  1  0  0  0
  4  5  2  0  0  0
  5  9  1  0  0  0
  5  6  1  0  0  0
  9 10  2  0  0  0
  9 16  1  0  0  0
 10 11  1  0  0  0
 11 12  2  0  0  0
 12 13  1  0  0  0
 12 14  1  0  0  0
 14 15  1  0  0  0
 14 16  2  0  0  0
  6  7  2  0  0  0
  7  8  1  0  0  0
M  END
> <minimizedAffinity>
-6.94719

$$$$
../data/sim29_sdf/CHEMBL85811.pdb


 16 17  0  0  0  0  0  0  0  0999 V2000
   72.1120   52.7346   56.9588 N   0  0  0  0  0  0  0  0  0  0  0  0
   71.4579   51.6740   56.2837 C   0  0  0  0  0  0  0  0  0  0  0  0
   70.5470   50.9129   56.9803 C   0  0  0  0  0  0  0  0  0  0  0  0
   69.9091   49.8811   56.3283 C   0  0  0  0  0  0  0  0  0  0  0  0
   70.1658   49.5999   55.0041 C   0  0  0  0  0  0  0  0  0  0  0  0
   71.0780   50.3795   54.3490 C   0  0  0  0  0  0  0  0  0  0  0  0
   71.7398   51.4234   54.9623 C   0  0  0  0  0  0  0  0  0  0  0  0
   72.6721   52.2000   54.2454 O   0  0  0  0  0  0  0  0  0  0  0  0
   69.4681   48.4875   54.3289 C   0  0  0  0  0  0  0  0  0  0  0  0
   68.6425   47.6551   55.0545 C   0  0  0  0  0  0  0  0  0  0  0  0
   67.9609   46.5990   54.4835 C   0  0  0  0  0  0  0  0  0  0  0  0
   68.0939   46.3430   53.1338 C   0  0  0  0  0  0  0  0  0  0  0  0
   67.4021   45.2560   52.5107 N   0  0  0  0  0  0  0  0  0  0  0  0
   68.9173   47.1697   52.4045 C   0  0  0  0  0  0  0  0  0  0  0  0
   69.0363   46.8926   51.0427 O   0  0  0  0  0  0  0  0  0  0  0  0
   69.6046   48.2362   52.9810 C   0  0  0  0  0  0  0  0  0  0  0  0
  1  2  1  0  0  0
  2  3  2  0  0  0
  2  7  1  0  0  0
  3  4  1  0  0  0
  4  5  2  0  0  0
  5  9  1  0  0  0
  5  6  1  0  0  0
  9 10  2  0  0  0
  9 16  1  0  0  0
 10 11  1  0  0  0
 11 12  2  0  0  0
 12 13  1  0  0  0
 12 14  1  0  0  0
 14 15  1  0  0  0
 14 16  2  0  0  0
  6  7  2  0  0  0
  7  8  1  0  0  0
M  END
> <minimizedAffinity>
-6.89629

$$$$
../data/sim29_sdf/CHEMBL2074780.pdb


 13 13  0  0  0  0  0  0  0  0999 V2000
   68.7056   47.7021   54.0814 C   0  0  0  0  0  0  0  0  0  0  0  0
   68.0784   46.7235   53.3802 C   0  0  0  0  0  0  0  0  0  0  0  0
   67.8724   45.4598   53.8855 C   0  0  0  0  0  0  0  0  0  0  0  0
   68.3210   45.1591   55.1688 C   0  0  0  0  0  0  0  0  0  0  0  0
   68.0937   43.8873   55.6315 O   0  0  0  0  0  0  0  0  0  0  0  0
   68.9627   46.1294   55.9123 C   0  0  0  0  0  0  0  0  0  0  0  0
   69.4168   45.8620   57.1830 O   0  0  0  0  0  0  0  0  0  0  0  0
   69.1440   47.3867   55.3548 C   0  0  0  0  0  0  0  0  0  0  0  0
   68.9698   49.0835   53.6276 C   0  0  0  0  0  0  0  0  0  0  0  0
   69.1885   49.9122   54.7555 O   0  0  0  0  0  0  0  0  0  0  0  0
   71.2316   49.1450   52.9908 O   0  0  0  0  0  0  0  0  0  0  0  0
   70.0279   49.2453   52.6429 C   0  0  0  0  0  0  0  0  0  0  0  0
   69.8226   49.5120   51.2946 O   0  0  0  0  0  0  0  0  0  0  0  0
 11 12  2  0  0  0
 12 13  1  0  0  0
 12  9  1  0  0  0
  9 10  1  0  0  0
  9  1  1  0  0  0
  1  2  2  0  0  0
  1  8  1  0  0  0
  2  3  1  0  0  0
  3  4  2  0  0  0
  4  5  1  0  0  0
  4  6  1  0  0  0
  6  7  1  0  0  0
  6  8  2  0  0  0
M  END
> <minimizedAffinity>
-6.25507

$$$$
../data/sim29_sdf/CHEMBL2074780.pdb


 13 13  0  0  0  0  0  0  0  0999 V2000
   68.7923   47.6261   54.0681 C   0  0  0  0  0  0  0  0  0  0  0  0
   68.1389   46.5972   53.4101 C   0  0  0  0  0  0  0  0  0  0  0  0
   67.9315   45.3738   54.0319 C   0  0  0  0  0  0  0  0  0  0  0  0
   68.3655   45.1370   55.3204 C   0  0  0  0  0  0  0  0  0  0  0  0
   68.1191   43.8854   55.8692 O   0  0  0  0  0  0  0  0  0  0  0  0
   69.0094   46.1455   55.9751 C   0  0  0  0  0  0  0  0  0  0  0  0
   69.4619   45.9493   57.2720 O   0  0  0  0  0  0  0  0  0  0  0  0
   69.2112   47.3603   55.3469 C   0  0  0  0  0  0  0  0  0  0  0  0
   68.9701   48.8837   53.3461 C   0  0  0  0  0  0  0  0  0  0  0  0
   68.9224   49.9068   54.2931 O   0  0  0  0  0  0  0  0  0  0  0  0
   70.2793   48.7909   51.3270 O   0  0  0  0  0  0  0  0  0  0  0  0
   70.1935   48.9979   52.5654 C   0  0  0  0  0  0  0  0  0  0  0  0
   71.3749   49.3590   53.1954 O   0  0  0  0  0  0  0  0  0  0  0  0
 11 12  2  0  0  0
 12 13  1  0  0  0
 12  9  1  0  0  0
  9 10  1  0  0  0
  9  1  1  0  0  0
  1  2  2  0  0  0
  1  8  1  0  0  0
  2  3  1  0  0  0
  3  4  2  0  0  0
  4  5  1  0  0  0
  4  6  1  0  0  0
  6  7  1  0  0  0
  6  8  2  0  0  0
M  END
> <minimizedAffinity>
-6.29763

$$$$
../data/sim29_sdf/CHEMBL164989.pdb


 11 11  0  0  0  0  0  0  0  0999 V2000
   68.1472   47.5954   57.3903 N   0  0  0  0  0  0  0  0  0  0  0  0
   68.5421   47.7242   56.0328 C   0  0  0  0  0  0  0  0  0  0  0  0
   68.9437   48.9273   55.4883 C   0  0  0  0  0  0  0  0  0  0  0  0
   69.3315   49.0715   54.1717 C   0  0  0  0  0  0  0  0  0  0  0  0
   69.3358   47.9907   53.3135 C   0  0  0  0  0  0  0  0  0  0  0  0
   68.9359   46.7831   53.8501 C   0  0  0  0  0  0  0  0  0  0  0  0
   68.5486   46.6401   55.1661 C   0  0  0  0  0  0  0  0  0  0  0  0
   68.1517   45.4103   55.6742 O   0  0  0  0  0  0  0  0  0  0  0  0
   69.7322   48.1125   51.9498 N   0  0  0  0  0  0  0  0  0  0  0  0
   69.8848   47.1414   51.1907 O   0  0  0  0  0  0  0  0  0  0  0  0
   69.9638   49.3547   51.4170 O   0  0  0  0  0  0  0  0  0  0  0  0
  1  2  1  0  0  0
  2  3  2  0  0  0
  2  7  1  0  0  0
  3  4  1  0  0  0
  4  5  2  0  0  0
  5  9  1  0  0  0
  5  6  1  0  0  0
  9 10  2  0  0  0
  9 11  1  0  0  0
  6  7  2  0  0  0
  7  8  1  0  0  0
M  CHG 1   9   1
M  CHG 1  11  -1
M  END
> <minimizedAffinity>
-5.94989

$$$$
../data/sim29_sdf/CHEMBL2311152.pdb


 12 12  0  0  0  0  0  0  0  0999 V2000
   68.8523   47.8850   54.8235 C   0  0  0  0  0  0  0  0  0  0  0  0
   69.0356   49.2462   54.7575 C   0  0  0  0  0  0  0  0  0  0  0  0
   69.3881   49.8548   53.5505 C   0  0  0  0  0  0  0  0  0  0  0  0
   69.5531   49.0953   52.4228 C   0  0  0  0  0  0  0  0  0  0  0  0
   69.9011   49.6264   51.1912 O   0  0  0  0  0  0  0  0  0  0  0  0
   69.3699   47.7282   52.4780 C   0  0  0  0  0  0  0  0  0  0  0  0
   69.5381   46.9472   51.3256 O   0  0  0  0  0  0  0  0  0  0  0  0
   69.0177   47.1250   53.6884 C   0  0  0  0  0  0  0  0  0  0  0  0
   68.4818   47.2675   56.1003 C   0  0  0  0  0  0  0  0  0  0  0  0
   68.4650   45.8756   55.9425 O   0  0  0  0  0  0  0  0  0  0  0  0
   69.5073   47.5942   57.1672 C   0  0  0  0  0  0  0  0  0  0  0  0
   69.8288   46.4038   57.8891 N   0  0  0  0  0  0  0  0  0  0  0  0
  9 10  1  0  0  0
  9 11  1  0  0  0
  9  1  1  0  0  0
 11 12  1  0  0  0
  1  2  2  0  0  0
  1  8  1  0  0  0
  2  3  1  0  0  0
  3  4  2  0  0  0
  4  5  1  0  0  0
  4  6  1  0  0  0
  6  7  1  0  0  0
  6  8  2  0  0  0
M  CHG 1  12   1
M  END
> <minimizedAffinity>
-6.01473

$$$$
../data/sim29_sdf/CHEMBL2311152.pdb


 12 12  0  0  0  0  0  0  0  0999 V2000
   68.8924   47.8171   54.7896 C   0  0  0  0  0  0  0  0  0  0  0  0
   69.0361   49.1856   54.7518 C   0  0  0  0  0  0  0  0  0  0  0  0
   69.3335   49.8194   53.5749 C   0  0  0  0  0  0  0  0  0  0  0  0
   69.4930   49.0747   52.4076 C   0  0  0  0  0  0  0  0  0  0  0  0
   69.7929   49.7887   51.2601 O   0  0  0  0  0  0  0  0  0  0  0  0
   69.3549   47.7033   52.4174 C   0  0  0  0  0  0  0  0  0  0  0  0
   69.5141   46.9625   51.2462 O   0  0  0  0  0  0  0  0  0  0  0  0
   69.0556   47.1147   53.6210 C   0  0  0  0  0  0  0  0  0  0  0  0
   68.5745   47.1825   56.0632 C   0  0  0  0  0  0  0  0  0  0  0  0
   68.5022   45.7953   55.9506 O   0  0  0  0  0  0  0  0  0  0  0  0
   69.5761   47.4781   57.1582 C   0  0  0  0  0  0  0  0  0  0  0  0
   69.8075   46.2092   57.8340 N   0  0  0  0  0  0  0  0  0  0  0  0
  9 10  1  0  0  0
  9 11  1  0  0  0
  9  1  1  0  0  0
 11 12  1  0  0  0
  1  2  2  0  0  0
  1  8  1  0  0  0
  2  3  1  0  0  0
  3  4  2  0  0  0
  4  5  1  0  0  0
  4  6  1  0  0  0
  6  7  1  0  0  0
  6  8  2  0  0  0
M  CHG 1  12   1
M  END
> <minimizedAffinity>
-6.01534

$$$$
../data/sim29_sdf/CHEMBL1160982.pdb


 13 13  0  0  0  0  0  0  0  0999 V2000
   68.8125   48.0451   55.3091 C   0  0  0  0  0  0  0  0  0  0  0  0
   68.2568   46.8962   54.7853 C   0  0  0  0  0  0  0  0  0  0  0  0
   68.4742   46.5134   53.4694 C   0  0  0  0  0  0  0  0  0  0  0  0
   69.2670   47.2944   52.6499 C   0  0  0  0  0  0  0  0  0  0  0  0
   69.5247   46.9632   51.3165 O   0  0  0  0  0  0  0  0  0  0  0  0
   69.8225   48.4387   53.1671 C   0  0  0  0  0  0  0  0  0  0  0  0
   70.6269   49.2228   52.3221 O   0  0  0  0  0  0  0  0  0  0  0  0
   69.5947   48.8004   54.4739 C   0  0  0  0  0  0  0  0  0  0  0  0
   68.5376   48.3936   56.7257 C   0  0  0  0  0  0  0  0  0  0  0  0
   67.2995   47.9303   57.1587 O   0  0  0  0  0  0  0  0  0  0  0  0
   67.5086   50.5310   57.5377 C   0  0  0  0  0  0  0  0  0  0  0  0
   68.7333   49.8546   57.0096 C   0  0  0  0  0  0  0  0  0  0  0  0
   69.7815   50.0003   58.0041 N   0  0  0  0  0  0  0  0  0  0  0  0
 12 11  1  0  0  0
 12 13  1  0  0  0
 12  9  1  0  0  0
  9 10  1  0  0  0
  9  1  1  0  0  0
  1  2  2  0  0  0
  1  8  1  0  0  0
  2  3  1  0  0  0
  3  4  2  0  0  0
  4  5  1  0  0  0
  4  6  1  0  0  0
  6  7  1  0  0  0
  6  8  2  0  0  0
M  CHG 1  13   1
M  END
> <minimizedAffinity>
-6.24474

$$$$
../data/sim29_sdf/CHEMBL1160982.pdb


 13 13  0  0  0  0  0  0  0  0999 V2000
   68.6756   47.8592   55.3679 C   0  0  0  0  0  0  0  0  0  0  0  0
   68.0541   46.8676   54.6839 C   0  0  0  0  0  0  0  0  0  0  0  0
   68.3659   46.6118   53.3570 C   0  0  0  0  0  0  0  0  0  0  0  0
   69.3181   47.3468   52.6698 C   0  0  0  0  0  0  0  0  0  0  0  0
   69.6294   47.0901   51.3427 O   0  0  0  0  0  0  0  0  0  0  0  0
   69.9438   48.3477   53.3627 C   0  0  0  0  0  0  0  0  0  0  0  0
   70.9154   49.1230   52.7168 O   0  0  0  0  0  0  0  0  0  0  0  0
   69.6369   48.5994   54.6684 C   0  0  0  0  0  0  0  0  0  0  0  0
   68.4715   48.2690   56.7569 C   0  0  0  0  0  0  0  0  0  0  0  0
   67.1838   47.8871   57.1439 O   0  0  0  0  0  0  0  0  0  0  0  0
   67.3290   50.1882   57.6916 C   0  0  0  0  0  0  0  0  0  0  0  0
   68.6500   49.7077   57.0684 C   0  0  0  0  0  0  0  0  0  0  0  0
   69.6674   49.9889   58.0590 N   0  0  0  0  0  0  0  0  0  0  0  0
 12 11  1  0  0  0
 12 13  1  0  0  0
 12  9  1  0  0  0
  9 10  1  0  0  0
  9  1  1  0  0  0
  1  2  2  0  0  0
  1  8  1  0  0  0
  2  3  1  0  0  0
  3  4  2  0  0  0
  4  5  1  0  0  0
  4  6  1  0  0  0
  6  7  1  0  0  0
  6  8  2  0  0  0
M  CHG 1  13   1
M  END
> <minimizedAffinity>
-6.35207

$$$$
../data/sim29_sdf/CHEMBL1350643.pdb


 17 18  0  0  0  0  0  0  0  0999 V2000
   68.8568   50.8430   55.7909 C   0  0  0  0  0  0  0  0  0  0  0  0
   73.5141   53.8223   56.9974 N   0  0  0  0  0  0  0  0  0  0  0  0
   72.3234   53.1092   56.6803 C   0  0  0  0  0  0  0  0  0  0  0  0
   71.2036   53.7301   56.1590 C   0  0  0  0  0  0  0  0  0  0  0  0
   70.0719   53.0008   55.8674 C   0  0  0  0  0  0  0  0  0  0  0  0
   70.0488   51.6491   56.0923 C   0  0  0  0  0  0  0  0  0  0  0  0
   71.1698   51.0509   56.6094 C   0  0  0  0  0  0  0  0  0  0  0  0
   72.3110   51.7493   56.9110 C   0  0  0  0  0  0  0  0  0  0  0  0
   73.4082   51.0941   57.4306 O   0  0  0  0  0  0  0  0  0  0  0  0
   69.0723   49.8927   54.6615 C   0  0  0  0  0  0  0  0  0  0  0  0
   69.0599   48.5258   54.8545 C   0  0  0  0  0  0  0  0  0  0  0  0
   69.2600   47.6546   53.8047 C   0  0  0  0  0  0  0  0  0  0  0  0
   69.4834   48.0874   52.5115 C   0  0  0  0  0  0  0  0  0  0  0  0
   69.6883   47.1758   51.4391 N   0  0  0  0  0  0  0  0  0  0  0  0
   69.4970   49.4592   52.3173 C   0  0  0  0  0  0  0  0  0  0  0  0
   69.7201   49.9127   51.0219 O   0  0  0  0  0  0  0  0  0  0  0  0
   69.2953   50.3240   53.3709 C   0  0  0  0  0  0  0  0  0  0  0  0
  2  3  1  0  0  0
  3  4  2  0  0  0
  3  8  1  0  0  0
  4  5  1  0  0  0
  5  6  2  0  0  0
  6  1  1  0  0  0
  6  7  1  0  0  0
  1 10  1  0  0  0
 10 11  2  0  0  0
 10 17  1  0  0  0
 11 12  1  0  0  0
 12 13  2  0  0  0
 13 14  1  0  0  0
 13 15  1  0  0  0
 15 16  1  0  0  0
 15 17  2  0  0  0
  7  8  2  0  0  0
  8  9  1  0  0  0
M  END
> <minimizedAffinity>
-7.21618

$$$$
../data/sim29_sdf/CHEMBL1350643.pdb


 17 18  0  0  0  0  0  0  0  0999 V2000
   68.9332   50.7262   55.7741 C   0  0  0  0  0  0  0  0  0  0  0  0
   69.6347   47.1146   51.4670 N   0  0  0  0  0  0  0  0  0  0  0  0
   69.4584   48.0113   52.5460 C   0  0  0  0  0  0  0  0  0  0  0  0
   69.2211   47.5189   53.8321 C   0  0  0  0  0  0  0  0  0  0  0  0
   69.0523   48.4223   54.8675 C   0  0  0  0  0  0  0  0  0  0  0  0
   69.1128   49.7797   54.6694 C   0  0  0  0  0  0  0  0  0  0  0  0
   69.3481   50.2502   53.3973 C   0  0  0  0  0  0  0  0  0  0  0  0
   69.5241   49.3711   52.3211 C   0  0  0  0  0  0  0  0  0  0  0  0
   69.7618   49.8297   51.0327 O   0  0  0  0  0  0  0  0  0  0  0  0
   70.1605   51.5026   56.0858 C   0  0  0  0  0  0  0  0  0  0  0  0
   70.1378   52.8723   55.9177 C   0  0  0  0  0  0  0  0  0  0  0  0
   71.2680   53.6092   56.2020 C   0  0  0  0  0  0  0  0  0  0  0  0
   72.4059   52.9647   56.6510 C   0  0  0  0  0  0  0  0  0  0  0  0
   73.5927   53.7115   56.9526 N   0  0  0  0  0  0  0  0  0  0  0  0
   72.4567   51.5974   56.8275 C   0  0  0  0  0  0  0  0  0  0  0  0
   73.6179   50.9492   57.2843 O   0  0  0  0  0  0  0  0  0  0  0  0
   71.3107   50.8870   56.5351 C   0  0  0  0  0  0  0  0  0  0  0  0
  2  3  1  0  0  0
  3  4  2  0  0  0
  3  8  1  0  0  0
  4  5  1  0  0  0
  5  6  2  0  0  0
  6  1  1  0  0  0
  6  7  1  0  0  0
  1 10  1  0  0  0
 10 11  2  0  0  0
 10 17  1  0  0  0
 11 12  1  0  0  0
 12 13  2  0  0  0
 13 14  1  0  0  0
 13 15  1  0  0  0
 15 16  1  0  0  0
 15 17  2  0  0  0
  7  8  2  0  0  0
  8  9  1  0  0  0
M  END
> <minimizedAffinity>
-7.16102

$$$$
../data/sim29_sdf/CHEMBL1612659.pdb


 13 13  0  0  0  0  0  0  0  0999 V2000
   69.3971   48.0265   53.4661 C   0  0  0  0  0  0  0  0  0  0  0  0
   69.0250   47.8299   52.1465 C   0  0  0  0  0  0  0  0  0  0  0  0
   68.2717   46.7257   51.8070 C   0  0  0  0  0  0  0  0  0  0  0  0
   67.8571   45.7830   52.7297 C   0  0  0  0  0  0  0  0  0  0  0  0
   67.0938   44.6796   52.3353 O   0  0  0  0  0  0  0  0  0  0  0  0
   68.2291   45.9804   54.0440 C   0  0  0  0  0  0  0  0  0  0  0  0
   67.8532   45.0830   55.0194 O   0  0  0  0  0  0  0  0  0  0  0  0
   68.9819   47.0858   54.3774 C   0  0  0  0  0  0  0  0  0  0  0  0
   70.2060   49.1889   53.9124 C   0  0  0  0  0  0  0  0  0  0  0  0
   71.4205   49.2780   53.2177 O   0  0  0  0  0  0  0  0  0  0  0  0
   68.8663   50.8113   55.1600 C   0  0  0  0  0  0  0  0  0  0  0  0
   69.4020   50.4670   53.8079 C   0  0  0  0  0  0  0  0  0  0  0  0
   70.1298   51.5359   53.2103 N   0  0  0  0  0  0  0  0  0  0  0  0
 12 11  1  0  0  0
 12 13  1  0  0  0
 12  9  1  0  0  0
  9 10  1  0  0  0
  9  1  1  0  0  0
  1  2  2  0  0  0
  1  8  1  0  0  0
  2  3  1  0  0  0
  3  4  2  0  0  0
  4  5  1  0  0  0
  4  6  1  0  0  0
  6  7  1  0  0  0
  6  8  2  0  0  0
M  CHG 1  13   1
M  END
> <minimizedAffinity>
-6.29343

$$$$
../data/sim29_sdf/CHEMBL1612659.pdb


 13 13  0  0  0  0  0  0  0  0999 V2000
   69.1039   49.7108   54.6668 C   0  0  0  0  0  0  0  0  0  0  0  0
   69.0442   48.3413   54.8502 C   0  0  0  0  0  0  0  0  0  0  0  0
   69.2180   47.5074   53.7887 C   0  0  0  0  0  0  0  0  0  0  0  0
   69.4539   47.9593   52.5126 C   0  0  0  0  0  0  0  0  0  0  0  0
   69.6315   47.1209   51.4240 O   0  0  0  0  0  0  0  0  0  0  0  0
   69.5135   49.3231   52.3221 C   0  0  0  0  0  0  0  0  0  0  0  0
   69.7482   49.8659   51.0676 O   0  0  0  0  0  0  0  0  0  0  0  0
   69.3393   50.1875   53.3952 C   0  0  0  0  0  0  0  0  0  0  0  0
   68.9258   50.6525   55.7637 C   0  0  0  0  0  0  0  0  0  0  0  0
   68.1159   51.7018   55.3180 O   0  0  0  0  0  0  0  0  0  0  0  0
   67.1549   51.0111   57.3823 C   0  0  0  0  0  0  0  0  0  0  0  0
   68.2850   50.0785   56.9878 C   0  0  0  0  0  0  0  0  0  0  0  0
   69.1896   50.0085   58.1161 N   0  0  0  0  0  0  0  0  0  0  0  0
 12 11  1  0  0  0
 12 13  1  0  0  0
 12  9  1  0  0  0
  9 10  1  0  0  0
  9  1  1  0  0  0
  1  2  2  0  0  0
  1  8  1  0  0  0
  2  3  1  0  0  0
  3  4  2  0  0  0
  4  5  1  0  0  0
  4  6  1  0  0  0
  6  7  1  0  0  0
  6  8  2  0  0  0
M  CHG 1  13   1
M  END
> <minimizedAffinity>
-6.29042

$$$$
../data/sim29_sdf/CHEMBL1462.pdb


 11 11  0  0  0  0  0  0  0  0999 V2000
   68.1564   47.5819   57.4175 N   0  0  0  0  0  0  0  0  0  0  0  0
   68.5495   47.7013   56.0507 C   0  0  0  0  0  0  0  0  0  0  0  0
   68.9334   48.9185   55.5285 C   0  0  0  0  0  0  0  0  0  0  0  0
   69.3191   49.0667   54.2048 C   0  0  0  0  0  0  0  0  0  0  0  0
   69.3330   47.9853   53.3524 C   0  0  0  0  0  0  0  0  0  0  0  0
   68.9494   46.7696   53.8728 C   0  0  0  0  0  0  0  0  0  0  0  0
   68.5630   46.6197   55.1950 C   0  0  0  0  0  0  0  0  0  0  0  0
   68.1772   45.3886   55.7103 O   0  0  0  0  0  0  0  0  0  0  0  0
   69.7393   48.1335   51.9521 C   0  0  0  0  0  0  0  0  0  0  0  0
   69.8824   47.1079   51.2217 O   0  0  0  0  0  0  0  0  0  0  0  0
   69.9822   49.3483   51.3669 O   0  0  0  0  0  0  0  0  0  0  0  0
  1  2  1  0  0  0
  2  3  2  0  0  0
  2  7  1  0  0  0
  3  4  1  0  0  0
  4  5  2  0  0  0
  5  9  1  0  0  0
  5  6  1  0  0  0
  9 10  2  0  0  0
  9 11  1  0  0  0
  6  7  2  0  0  0
  7  8  1  0  0  0
M  END
> <minimizedAffinity>
-6.09845

$$$$
../data/sim29_sdf/CHEMBL3273169.pdb


 12 12  0  0  0  0  0  0  0  0999 V2000
   68.8524   47.9061   54.8125 C   0  0  0  0  0  0  0  0  0  0  0  0
   69.0390   49.2701   54.7439 C   0  0  0  0  0  0  0  0  0  0  0  0
   69.3887   49.8611   53.5468 C   0  0  0  0  0  0  0  0  0  0  0  0
   69.5465   49.0484   52.4253 C   0  0  0  0  0  0  0  0  0  0  0  0
   69.8992   49.6306   51.2095 O   0  0  0  0  0  0  0  0  0  0  0  0
   69.3669   47.6974   52.4661 C   0  0  0  0  0  0  0  0  0  0  0  0
   69.5246   46.8917   51.3486 O   0  0  0  0  0  0  0  0  0  0  0  0
   69.0171   47.1193   53.6699 C   0  0  0  0  0  0  0  0  0  0  0  0
   68.4811   47.2670   56.0761 C   0  0  0  0  0  0  0  0  0  0  0  0
   68.4777   45.8727   55.8447 O   0  0  0  0  0  0  0  0  0  0  0  0
   69.8524   46.2653   57.8015 N   0  0  0  0  0  0  0  0  0  0  0  0
   69.4975   47.5157   57.1646 C   0  0  0  0  0  0  0  0  0  0  0  0
 11 12  1  0  0  0
 12  9  1  0  0  0
  9 10  1  0  0  0
  9  1  1  0  0  0
  1  2  2  0  0  0
  1  8  1  0  0  0
  2  3  1  0  0  0
  3  4  2  0  0  0
  4  5  1  0  0  0
  4  6  1  0  0  0
  6  7  1  0  0  0
  6  8  2  0  0  0
M  CHG 1  11   1
M  END
> <minimizedAffinity>
-5.97820

$$$$
../data/sim29_sdf/CHEMBL1437.pdb


 12 12  0  0  0  0  0  0  0  0999 V2000
   69.1199   47.3147   54.4524 C   0  0  0  0  0  0  0  0  0  0  0  0
   68.8394   46.8254   53.1725 C   0  0  0  0  0  0  0  0  0  0  0  0
   69.0668   47.5885   52.0449 C   0  0  0  0  0  0  0  0  0  0  0  0
   69.5794   48.8489   52.2173 C   0  0  0  0  0  0  0  0  0  0  0  0
   69.8188   49.6400   51.0966 O   0  0  0  0  0  0  0  0  0  0  0  0
   69.8654   49.3553   53.4636 C   0  0  0  0  0  0  0  0  0  0  0  0
   70.3912   50.6559   53.5982 O   0  0  0  0  0  0  0  0  0  0  0  0
   69.6346   48.5856   54.5827 C   0  0  0  0  0  0  0  0  0  0  0  0
   68.8494   46.4360   55.6230 C   0  0  0  0  0  0  0  0  0  0  0  0
   67.9473   47.0919   56.4590 O   0  0  0  0  0  0  0  0  0  0  0  0
   68.3278   44.0680   55.9966 N   0  0  0  0  0  0  0  0  0  0  0  0
   68.2430   45.1523   55.0668 C   0  0  0  0  0  0  0  0  0  0  0  0
 11 12  1  0  0  0
 12  9  1  0  0  0
  9 10  1  0  0  0
  9  1  1  0  0  0
  1  2  2  0  0  0
  1  8  1  0  0  0
  2  3  1  0  0  0
  3  4  2  0  0  0
  4  5  1  0  0  0
  4  6  1  0  0  0
  6  7  1  0  0  0
  6  8  2  0  0  0
M  CHG 1  11   1
M  END
> <minimizedAffinity>
-6.03012

$$$$
../data/sim29_sdf/CHEMBL1437.pdb


 12 12  0  0  0  0  0  0  0  0999 V2000
   68.7579   47.7840   54.7703 C   0  0  0  0  0  0  0  0  0  0  0  0
   68.9913   49.1517   54.7131 C   0  0  0  0  0  0  0  0  0  0  0  0
   69.3924   49.7886   53.5594 C   0  0  0  0  0  0  0  0  0  0  0  0
   69.5643   49.0223   52.4270 C   0  0  0  0  0  0  0  0  0  0  0  0
   69.9677   49.5754   51.2102 O   0  0  0  0  0  0  0  0  0  0  0  0
   69.3361   47.6463   52.4566 C   0  0  0  0  0  0  0  0  0  0  0  0
   69.5191   46.9022   51.2946 O   0  0  0  0  0  0  0  0  0  0  0  0
   68.9364   47.0484   53.6303 C   0  0  0  0  0  0  0  0  0  0  0  0
   68.3309   47.2065   56.0624 C   0  0  0  0  0  0  0  0  0  0  0  0
   69.2807   46.2533   56.4444 O   0  0  0  0  0  0  0  0  0  0  0  0
   66.9000   48.2969   57.6289 N   0  0  0  0  0  0  0  0  0  0  0  0
   68.2496   48.2363   57.1613 C   0  0  0  0  0  0  0  0  0  0  0  0
 11 12  1  0  0  0
 12  9  1  0  0  0
  9 10  1  0  0  0
  9  1  1  0  0  0
  1  2  2  0  0  0
  1  8  1  0  0  0
  2  3  1  0  0  0
  3  4  2  0  0  0
  4  5  1  0  0  0
  4  6  1  0  0  0
  6  7  1  0  0  0
  6  8  2  0  0  0
M  CHG 1  11   1
M  END
> <minimizedAffinity>
-5.96996

$$$$
../data/sim29_sdf/CHEMBL270197.pdb


  9  9  0  0  0  0  0  0  0  0999 V2000
   70.4938   49.2284   54.0603 N   0  0  0  0  0  0  0  0  0  0  0  0
   69.6355   48.1960   53.6066 C   0  0  0  0  0  0  0  0  0  0  0  0
   68.8766   47.4238   54.4619 C   0  0  0  0  0  0  0  0  0  0  0  0
   68.0453   46.4220   54.0014 C   0  0  0  0  0  0  0  0  0  0  0  0
   67.9382   46.1491   52.6651 C   0  0  0  0  0  0  0  0  0  0  0  0
   67.0877   45.1280   52.2386 O   0  0  0  0  0  0  0  0  0  0  0  0
   68.6848   46.9038   51.7868 C   0  0  0  0  0  0  0  0  0  0  0  0
   69.5141   47.9040   52.2486 C   0  0  0  0  0  0  0  0  0  0  0  0
   70.2898   48.6934   51.3901 O   0  0  0  0  0  0  0  0  0  0  0  0
  1  2  1  0  0  0
  2  3  2  0  0  0
  2  8  1  0  0  0
  3  4  1  0  0  0
  4  5  2  0  0  0
  5  6  1  0  0  0
  5  7  1  0  0  0
  7  8  2  0  0  0
  8  9  1  0  0  0
M  END
> <minimizedAffinity>
-5.51856

$$$$
../data/sim29_sdf/CHEMBL3248963.pdb


 12 12  0  0  0  0  0  0  0  0999 V2000
   69.3362   47.9643   53.2798 C   0  0  0  0  0  0  0  0  0  0  0  0
   68.8483   46.9368   52.5085 C   0  0  0  0  0  0  0  0  0  0  0  0
   68.3010   45.8057   53.0457 C   0  0  0  0  0  0  0  0  0  0  0  0
   68.2161   45.6511   54.4060 C   0  0  0  0  0  0  0  0  0  0  0  0
   67.6597   44.5022   54.9365 O   0  0  0  0  0  0  0  0  0  0  0  0
   68.7010   46.6731   55.2108 C   0  0  0  0  0  0  0  0  0  0  0  0
   68.6255   46.5362   56.5697 O   0  0  0  0  0  0  0  0  0  0  0  0
   69.2448   47.7955   54.6580 C   0  0  0  0  0  0  0  0  0  0  0  0
   69.9337   49.1957   52.7109 C   0  0  0  0  0  0  0  0  0  0  0  0
   69.7807   49.3049   51.3488 O   0  0  0  0  0  0  0  0  0  0  0  0
   70.2616   51.4892   53.4800 N   0  0  0  0  0  0  0  0  0  0  0  0
   69.3367   50.4076   53.3862 C   0  0  0  0  0  0  0  0  0  0  0  0
 11 12  1  0  0  0
 12  9  1  0  0  0
  9 10  1  0  0  0
  9  1  1  0  0  0
  1  2  2  0  0  0
  1  8  1  0  0  0
  2  3  1  0  0  0
  3  4  2  0  0  0
  4  5  1  0  0  0
  4  6  1  0  0  0
  6  7  1  0  0  0
  6  8  2  0  0  0
M  CHG 1  11   1
M  END
> <minimizedAffinity>
-6.04394

$$$$
../data/sim29_sdf/CHEMBL14927.pdb


 22 23  0  0  0  0  0  0  0  0999 V2000
   69.6740   48.8616   56.3234 C   0  0  0  0  0  0  0  0  0  0  0  0
   69.3327   48.2970   55.0198 C   0  0  0  0  0  0  0  0  0  0  0  0
   68.4978   47.2218   54.8753 C   0  0  0  0  0  0  0  0  0  0  0  0
   68.2119   46.7400   53.6124 C   0  0  0  0  0  0  0  0  0  0  0  0
   68.7454   47.3140   52.4783 C   0  0  0  0  0  0  0  0  0  0  0  0
   68.4598   46.8317   51.2025 O   0  0  0  0  0  0  0  0  0  0  0  0
   69.5859   48.3929   52.6032 C   0  0  0  0  0  0  0  0  0  0  0  0
   70.1775   49.0403   51.4805 N   0  0  0  0  0  0  0  0  0  0  0  0
   69.8544   48.8533   53.8779 C   0  0  0  0  0  0  0  0  0  0  0  0
   70.5567   47.2772   58.0225 C   0  0  0  0  0  0  0  0  0  0  0  0
   69.3220   47.8847   57.3939 C   0  0  0  0  0  0  0  0  0  0  0  0
   69.1163   50.2456   56.5933 C   0  0  0  0  0  0  0  0  0  0  0  0
   70.1031   51.3153   56.6330 C   0  0  0  0  0  0  0  0  0  0  0  0
   69.8530   52.5731   56.1193 C   0  0  0  0  0  0  0  0  0  0  0  0
   70.7937   53.5892   56.1766 C   0  0  0  0  0  0  0  0  0  0  0  0
   72.0168   53.3573   56.7580 C   0  0  0  0  0  0  0  0  0  0  0  0
   72.9934   54.3348   56.8433 O   0  0  0  0  0  0  0  0  0  0  0  0
   72.2968   52.0993   57.2849 C   0  0  0  0  0  0  0  0  0  0  0  0
   73.5573   51.8689   57.8817 N   0  0  0  0  0  0  0  0  0  0  0  0
   71.3292   51.1071   57.2092 C   0  0  0  0  0  0  0  0  0  0  0  0
   68.1932   50.1920   57.7576 C   0  0  0  0  0  0  0  0  0  0  0  0
   66.8925   50.9267   57.5074 C   0  0  0  0  0  0  0  0  0  0  0  0
 10 11  1  0  0  0
  1 11  1  0  0  0
  1  2  1  0  0  0
  1 12  1  0  0  0
  2  3  2  0  0  0
  2  9  1  0  0  0
  3  4  1  0  0  0
  4  5  2  0  0  0
  5  6  1  0  0  0
  5  7  1  0  0  0
  7  8  1  0  0  0
  7  9  2  0  0  0
 12 21  1  0  0  0
 12 13  1  0  0  0
 21 22  1  0  0  0
 13 14  2  0  0  0
 13 20  1  0  0  0
 14 15  1  0  0  0
 15 16  2  0  0  0
 16 17  1  0  0  0
 16 18  1  0  0  0
 18 19  1  0  0  0
 18 20  2  0  0  0
M  END
> <minimizedAffinity>
-8.05964

$$$$
../data/sim29_sdf/CHEMBL14927.pdb


 22 23  0  0  0  0  0  0  0  0999 V2000
   69.7048   48.4387   56.3763 C   0  0  0  0  0  0  0  0  0  0  0  0
   69.3409   48.0034   54.9835 C   0  0  0  0  0  0  0  0  0  0  0  0
   68.4600   46.9681   54.7547 C   0  0  0  0  0  0  0  0  0  0  0  0
   68.1282   46.5664   53.4790 C   0  0  0  0  0  0  0  0  0  0  0  0
   68.6583   47.1783   52.3647 C   0  0  0  0  0  0  0  0  0  0  0  0
   68.3359   46.7882   51.0673 O   0  0  0  0  0  0  0  0  0  0  0  0
   69.5386   48.2131   52.5894 C   0  0  0  0  0  0  0  0  0  0  0  0
   70.1073   48.8691   51.4771 N   0  0  0  0  0  0  0  0  0  0  0  0
   69.8718   48.6152   53.8642 C   0  0  0  0  0  0  0  0  0  0  0  0
   70.6080   46.9347   58.2038 C   0  0  0  0  0  0  0  0  0  0  0  0
   69.4400   47.3944   57.3831 C   0  0  0  0  0  0  0  0  0  0  0  0
   69.2059   49.8132   56.6109 C   0  0  0  0  0  0  0  0  0  0  0  0
   70.3755   50.7156   56.9268 C   0  0  0  0  0  0  0  0  0  0  0  0
   70.7919   50.7882   58.2360 C   0  0  0  0  0  0  0  0  0  0  0  0
   71.8676   51.6138   58.5544 C   0  0  0  0  0  0  0  0  0  0  0  0
   72.5233   52.3604   57.5806 C   0  0  0  0  0  0  0  0  0  0  0  0
   73.5995   53.1827   57.9120 O   0  0  0  0  0  0  0  0  0  0  0  0
   72.1012   52.2821   56.2692 C   0  0  0  0  0  0  0  0  0  0  0  0
   72.7632   53.0399   55.2628 N   0  0  0  0  0  0  0  0  0  0  0  0
   71.0226   51.4525   55.9620 C   0  0  0  0  0  0  0  0  0  0  0  0
   68.2087   50.0552   57.6677 C   0  0  0  0  0  0  0  0  0  0  0  0
   67.1352   51.0513   57.3925 C   0  0  0  0  0  0  0  0  0  0  0  0
 10 11  1  0  0  0
  1 11  1  0  0  0
  1  2  1  0  0  0
  1 12  1  0  0  0
  2  3  2  0  0  0
  2  9  1  0  0  0
  3  4  1  0  0  0
  4  5  2  0  0  0
  5  6  1  0  0  0
  5  7  1  0  0  0
  7  8  1  0  0  0
  7  9  2  0  0  0
 12 21  1  0  0  0
 12 13  1  0  0  0
 21 22  1  0  0  0
 13 14  2  0  0  0
 13 20  1  0  0  0
 14 15  1  0  0  0
 15 16  2  0  0  0
 16 17  1  0  0  0
 16 18  1  0  0  0
 18 19  1  0  0  0
 18 20  2  0  0  0
M  END
> <minimizedAffinity>
-7.98854

$$$$
../data/sim29_sdf/CHEMBL14927.pdb


 22 23  0  0  0  0  0  0  0  0999 V2000
   69.4641   50.9783   55.9987 C   0  0  0  0  0  0  0  0  0  0  0  0
   70.7274   51.7527   56.0286 C   0  0  0  0  0  0  0  0  0  0  0  0
   71.2356   52.3532   57.1638 C   0  0  0  0  0  0  0  0  0  0  0  0
   72.4023   53.0568   57.2017 C   0  0  0  0  0  0  0  0  0  0  0  0
   73.1461   53.1979   56.0512 C   0  0  0  0  0  0  0  0  0  0  0  0
   74.3487   53.9063   56.0272 O   0  0  0  0  0  0  0  0  0  0  0  0
   72.6891   52.6242   54.9015 C   0  0  0  0  0  0  0  0  0  0  0  0
   73.4611   52.7706   53.7112 N   0  0  0  0  0  0  0  0  0  0  0  0
   71.5001   51.9105   54.8752 C   0  0  0  0  0  0  0  0  0  0  0  0
   67.3847   50.8531   57.4284 C   0  0  0  0  0  0  0  0  0  0  0  0
   68.4811   51.6642   56.8558 C   0  0  0  0  0  0  0  0  0  0  0  0
   69.6559   49.5184   56.2394 C   0  0  0  0  0  0  0  0  0  0  0  0
   69.3629   48.7844   54.9823 C   0  0  0  0  0  0  0  0  0  0  0  0
   68.6744   47.5928   54.9350 C   0  0  0  0  0  0  0  0  0  0  0  0
   68.4122   46.9102   53.7549 C   0  0  0  0  0  0  0  0  0  0  0  0
   68.8563   47.4369   52.5528 C   0  0  0  0  0  0  0  0  0  0  0  0
   68.6176   46.7931   51.3544 O   0  0  0  0  0  0  0  0  0  0  0  0
   69.5481   48.6283   52.5582 C   0  0  0  0  0  0  0  0  0  0  0  0
   70.0018   49.1668   51.3229 N   0  0  0  0  0  0  0  0  0  0  0  0
   69.7851   49.2650   53.7337 C   0  0  0  0  0  0  0  0  0  0  0  0
   70.9539   49.0887   56.8064 C   0  0  0  0  0  0  0  0  0  0  0  0
   70.6985   48.7876   58.2940 C   0  0  0  0  0  0  0  0  0  0  0  0
 10 11  1  0  0  0
  1 11  1  0  0  0
  1  2  1  0  0  0
  1 12  1  0  0  0
  2  3  2  0  0  0
  2  9  1  0  0  0
  3  4  1  0  0  0
  4  5  2  0  0  0
  5  6  1  0  0  0
  5  7  1  0  0  0
  7  8  1  0  0  0
  7  9  2  0  0  0
 12 21  1  0  0  0
 12 13  1  0  0  0
 21 22  1  0  0  0
 13 14  2  0  0  0
 13 20  1  0  0  0
 14 15  1  0  0  0
 15 16  2  0  0  0
 16 17  1  0  0  0
 16 18  1  0  0  0
 18 19  1  0  0  0
 18 20  2  0  0  0
M  END
> <minimizedAffinity>
-8.05847

$$$$
../data/sim29_sdf/CHEMBL1256471.pdb


 13 13  0  0  0  0  0  0  0  0999 V2000
   68.5597   47.6940   55.2333 C   0  0  0  0  0  0  0  0  0  0  0  0
   67.9598   46.7160   54.4618 C   0  0  0  0  0  0  0  0  0  0  0  0
   68.3062   46.5018   53.1402 C   0  0  0  0  0  0  0  0  0  0  0  0
   69.2932   47.2897   52.5424 C   0  0  0  0  0  0  0  0  0  0  0  0
   69.6753   47.1167   51.2280 O   0  0  0  0  0  0  0  0  0  0  0  0
   69.8996   48.2694   53.3016 C   0  0  0  0  0  0  0  0  0  0  0  0
   70.8845   49.0655   52.7319 O   0  0  0  0  0  0  0  0  0  0  0  0
   69.5356   48.4645   54.6244 C   0  0  0  0  0  0  0  0  0  0  0  0
   68.2348   47.9648   56.6356 C   0  0  0  0  0  0  0  0  0  0  0  0
   68.9232   47.0991   57.4962 O   0  0  0  0  0  0  0  0  0  0  0  0
   67.2335   49.8905   57.7393 C   0  0  0  0  0  0  0  0  0  0  0  0
   68.4996   49.3700   57.0656 C   0  0  0  0  0  0  0  0  0  0  0  0
   69.5821   49.5143   57.9827 N   0  0  0  0  0  0  0  0  0  0  0  0
 12 11  1  0  0  0
 12 13  1  0  0  0
 12  9  1  0  0  0
  9 10  1  0  0  0
  9  1  1  0  0  0
  1  2  2  0  0  0
  1  8  1  0  0  0
  2  3  1  0  0  0
  3  4  2  0  0  0
  4  5  1  0  0  0
  4  6  1  0  0  0
  6  7  1  0  0  0
  6  8  2  0  0  0
M  CHG 1  13   1
M  END
> <minimizedAffinity>
-6.33811

$$$$
../data/sim29_sdf/CHEMBL3637795.pdb


 20 21  0  0  0  0  0  0  0  0999 V2000
   70.2162   49.2539   53.8537 C   0  0  0  0  0  0  0  0  0  0  0  0
   71.3982   49.1803   53.0333 O   0  0  0  0  0  0  0  0  0  0  0  0
   67.1205   44.6731   52.2933 N   0  0  0  0  0  0  0  0  0  0  0  0
   67.8741   45.8011   52.7149 C   0  0  0  0  0  0  0  0  0  0  0  0
   68.2673   46.7729   51.8172 C   0  0  0  0  0  0  0  0  0  0  0  0
   68.9974   47.8677   52.1957 C   0  0  0  0  0  0  0  0  0  0  0  0
   69.3935   48.0646   53.5461 C   0  0  0  0  0  0  0  0  0  0  0  0
   68.9999   47.1007   54.4253 C   0  0  0  0  0  0  0  0  0  0  0  0
   68.2502   45.9766   54.0289 C   0  0  0  0  0  0  0  0  0  0  0  0
   67.8934   45.0391   54.9850 O   0  0  0  0  0  0  0  0  0  0  0  0
   69.6085   50.5753   53.5781 C   0  0  0  0  0  0  0  0  0  0  0  0
   70.3104   51.6576   54.1702 N   0  0  0  0  0  0  0  0  0  0  0  0
   69.4159   52.3690   55.0849 C   0  0  0  0  0  0  0  0  0  0  0  0
   69.7027   51.8170   56.4596 C   0  0  0  0  0  0  0  0  0  0  0  0
   68.6744   50.9165   56.9778 C   0  0  0  0  0  0  0  0  0  0  0  0
   68.9334   49.5594   57.1139 C   0  0  0  0  0  0  0  0  0  0  0  0
   67.9837   48.6913   57.5764 C   0  0  0  0  0  0  0  0  0  0  0  0
   66.7472   49.2012   57.9084 C   0  0  0  0  0  0  0  0  0  0  0  0
   66.4450   50.5401   57.7896 C   0  0  0  0  0  0  0  0  0  0  0  0
   67.4315   51.3913   57.3176 C   0  0  0  0  0  0  0  0  0  0  0  0
  3  4  1  0  0  0
  4  5  2  0  0  0
  4  9  1  0  0  0
  5  6  1  0  0  0
  6  7  2  0  0  0
  7  1  1  0  0  0
  7  8  1  0  0  0
  1  2  1  0  0  0
  1 11  1  0  0  0
 11 12  1  0  0  0
 12 13  1  0  0  0
 13 14  1  0  0  0
 14 15  1  0  0  0
 15 16  2  0  0  0
 15 20  1  0  0  0
 16 17  1  0  0  0
 17 18  2  0  0  0
 18 19  1  0  0  0
 19 20  2  0  0  0
  8  9  2  0  0  0
  9 10  1  0  0  0
M  CHG 1  12   1
M  END
> <minimizedAffinity>
-7.51673

$$$$
../data/sim29_sdf/CHEMBL3637795.pdb


 20 21  0  0  0  0  0  0  0  0999 V2000
   68.5047   46.8474   55.9398 C   0  0  0  0  0  0  0  0  0  0  0  0
   67.6512   47.5724   56.7678 O   0  0  0  0  0  0  0  0  0  0  0  0
   69.7818   49.8448   51.2070 N   0  0  0  0  0  0  0  0  0  0  0  0
   69.4789   49.0846   52.3646 C   0  0  0  0  0  0  0  0  0  0  0  0
   69.2781   49.7321   53.5884 C   0  0  0  0  0  0  0  0  0  0  0  0
   68.9725   48.9769   54.6996 C   0  0  0  0  0  0  0  0  0  0  0  0
   68.8434   47.6110   54.7068 C   0  0  0  0  0  0  0  0  0  0  0  0
   69.0430   46.9648   53.4908 C   0  0  0  0  0  0  0  0  0  0  0  0
   69.3553   47.7175   52.3565 C   0  0  0  0  0  0  0  0  0  0  0  0
   69.5581   47.0768   51.1316 O   0  0  0  0  0  0  0  0  0  0  0  0
   69.7152   46.4262   56.6983 C   0  0  0  0  0  0  0  0  0  0  0  0
   69.8379   47.1053   57.9771 N   0  0  0  0  0  0  0  0  0  0  0  0
   70.9000   48.0766   57.8361 C   0  0  0  0  0  0  0  0  0  0  0  0
   70.6731   49.2394   58.7837 C   0  0  0  0  0  0  0  0  0  0  0  0
   70.0244   50.3105   58.0052 C   0  0  0  0  0  0  0  0  0  0  0  0
   70.8310   51.0699   57.1908 C   0  0  0  0  0  0  0  0  0  0  0  0
   70.2752   52.0669   56.4317 C   0  0  0  0  0  0  0  0  0  0  0  0
   68.9148   52.3290   56.4663 C   0  0  0  0  0  0  0  0  0  0  0  0
   68.1568   51.5492   57.2891 C   0  0  0  0  0  0  0  0  0  0  0  0
   68.6626   50.5272   58.0785 C   0  0  0  0  0  0  0  0  0  0  0  0
  3  4  1  0  0  0
  4  5  2  0  0  0
  4  9  1  0  0  0
  5  6  1  0  0  0
  6  7  2  0  0  0
  7  1  1  0  0  0
  7  8  1  0  0  0
  1  2  1  0  0  0
  1 11  1  0  0  0
 11 12  1  0  0  0
 12 13  1  0  0  0
 13 14  1  0  0  0
 14 15  1  0  0  0
 15 16  2  0  0  0
 15 20  1  0  0  0
 16 17  1  0  0  0
 17 18  2  0  0  0
 18 19  1  0  0  0
 19 20  2  0  0  0
  8  9  2  0  0  0
  9 10  1  0  0  0
M  CHG 1  12   1
M  END
> <minimizedAffinity>
-7.00543

$$$$
