../data/sim29_sdf/CHEMBL677.pdb
     RDKit          3D

 13 13  0  0  1  0  0  0  0  0999 V2000
   -3.3330    0.5450    0.1440 C   0  0  0  0  0  0  0  0  0  0  0  0
   -1.9610    0.0020   -0.2320 C   0  0  2  0  0  0  0  0  0  0  0  0
   -2.0200   -1.4250   -0.2820 N   0  0  0  0  0  0  0  0  0  0  0  0
   -0.9900    0.5220    0.8000 C   0  0  2  0  0  0  0  0  0  0  0  0
   -1.0520    1.9280    0.7220 O   0  0  0  0  0  0  0  0  0  0  0  0
    0.3900    0.0900    0.5700 C   0  0  0  0  0  0  0  0  0  0  0  0
    1.0070   -0.8600    1.3520 C   0  0  0  0  0  0  0  0  0  0  0  0
    2.3090   -1.2370    1.0990 C   0  0  0  0  0  0  0  0  0  0  0  0
    3.0280   -0.6640    0.0460 C   0  0  0  0  0  0  0  0  0  0  0  0
    4.3370   -1.0570   -0.1920 O   0  0  0  0  0  0  0  0  0  0  0  0
    2.4030    0.2860   -0.7330 C   0  0  0  0  0  0  0  0  0  0  0  0
    3.0850    0.8680   -1.7770 O   0  0  0  0  0  0  0  0  0  0  0  0
    1.1010    0.6510   -0.4660 C   0  0  0  0  0  0  0  0  0  0  0  0
  2  1  1  1
  2  3  1  0
  2  4  1  0
  4  5  1  6
  4  6  1  0
  6  7  2  0
  6 13  1  0
  7  8  1  0
  8  9  2  0
  9 10  1  0
  9 11  1  0
 11 12  1  0
 11 13  2  0
M  CHG  1   3   1
M  END
>  <MODEL>  (1) 
       1

$$$$
../data/sim29_sdf/CHEMBL677.pdb
     RDKit          3D

 13 13  0  0  1  0  0  0  0  0999 V2000
   -2.0870   -1.5230   -0.4990 C   0  0  0  0  0  0  0  0  0  0  0  0
   -2.2350   -0.2920    0.3550 C   0  0  2  0  0  0  0  0  0  0  0  0
   -2.4250    0.9030   -0.4480 N   0  0  0  0  0  0  0  0  0  0  0  0
   -1.0810   -0.1050    1.3090 C   0  0  2  0  0  0  0  0  0  0  0  0
   -1.4240    0.9980    2.1250 O   0  0  0  0  0  0  0  0  0  0  0  0
    0.2060    0.1240    0.6140 C   0  0  0  0  0  0  0  0  0  0  0  0
    0.4910    1.3260    0.0030 C   0  0  0  0  0  0  0  0  0  0  0  0
    1.6740    1.5670   -0.6480 C   0  0  0  0  0  0  0  0  0  0  0  0
    2.6630    0.5930   -0.7260 C   0  0  0  0  0  0  0  0  0  0  0  0
    3.8570    0.8840   -1.4010 O   0  0  0  0  0  0  0  0  0  0  0  0
    2.4060   -0.6120   -0.1260 C   0  0  0  0  0  0  0  0  0  0  0  0
    3.3510   -1.6300   -0.1660 O   0  0  0  0  0  0  0  0  0  0  0  0
    1.1880   -0.8340    0.5330 C   0  0  0  0  0  0  0  0  0  0  0  0
  2  1  1  6
  2  3  1  0
  2  4  1  0
  4  5  1  1
  4  6  1  0
  6  7  2  0
  6 13  1  0
  7  8  1  0
  8  9  2  0
  9 10  1  0
  9 11  1  0
 11 12  1  0
 11 13  2  0
M  CHG  1   3   1
M  END
>  <MODEL>  (2) 
       2

$$$$
../data/sim29_sdf/CHEMBL155014.pdb
     RDKit          3D

 22 23  0  0  1  0  0  0  0  0999 V2000
    0.3060    2.5280   -0.5980 C   0  0  0  0  0  0  0  0  0  0  0  0
   -0.2410    1.7200    0.5260 C   0  0  0  0  0  0  0  0  0  0  0  0
    0.1810    0.2590    0.5370 C   0  0  2  0  0  0  0  0  0  0  0  0
    1.6600    0.1990    0.6390 C   0  0  0  0  0  0  0  0  0  0  0  0
    2.2400   -0.1610    1.8320 C   0  0  0  0  0  0  0  0  0  0  0  0
    3.5990   -0.2070    1.9460 C   0  0  0  0  0  0  0  0  0  0  0  0
    4.4170    0.1000    0.8840 C   0  0  0  0  0  0  0  0  0  0  0  0
    5.8400    0.0460    1.0190 N   0  0  0  0  0  0  0  0  0  0  0  0
    3.8350    0.4600   -0.3130 C   0  0  0  0  0  0  0  0  0  0  0  0
    4.6340    0.7740   -1.3960 O   0  0  0  0  0  0  0  0  0  0  0  0
    2.4640    0.5060   -0.4250 C   0  0  0  0  0  0  0  0  0  0  0  0
   -0.4410   -0.4310   -0.6060 C   0  0  1  0  0  0  0  0  0  0  0  0
   -0.2070   -1.8830   -0.7820 C   0  0  0  0  0  0  0  0  0  0  0  0
    1.2190   -2.3220   -0.9730 C   0  0  0  0  0  0  0  0  0  0  0  0
   -1.9380   -0.2740   -0.4630 C   0  0  0  0  0  0  0  0  0  0  0  0
   -2.6670    0.3980   -1.4110 C   0  0  0  0  0  0  0  0  0  0  0  0
   -4.0300    0.5150   -1.2360 C   0  0  0  0  0  0  0  0  0  0  0  0
   -4.7180   -0.0040   -0.1610 C   0  0  0  0  0  0  0  0  0  0  0  0
   -6.1260    0.1430   -0.0270 N   0  0  0  0  0  0  0  0  0  0  0  0
   -3.9500   -0.6740    0.7720 C   0  0  0  0  0  0  0  0  0  0  0  0
   -4.6040   -1.2140    1.8730 O   0  0  0  0  0  0  0  0  0  0  0  0
   -2.5910   -0.8030    0.6180 C   0  0  0  0  0  0  0  0  0  0  0  0
  1  2  1  0
  3  2  1  6
  3  4  1  0
  3 12  1  0
  4  5  2  0
  4 11  1  0
  5  6  1  0
  6  7  2  0
  7  8  1  0
  7  9  1  0
  9 10  1  0
  9 11  2  0
 12 13  1  1
 12 15  1  0
 13 14  1  0
 15 16  2  0
 15 22  1  0
 16 17  1  0
 17 18  2  0
 18 19  1  0
 18 20  1  0
 20 21  1  0
 20 22  2  0
M  END
>  <MODEL>  (3) 
       1

$$$$
../data/sim29_sdf/CHEMBL155014.pdb
     RDKit          3D

 22 23  0  0  1  0  0  0  0  0999 V2000
    1.5420   -3.0990    0.9520 C   0  0  0  0  0  0  0  0  0  0  0  0
    1.1740   -1.9500    1.8080 C   0  0  0  0  0  0  0  0  0  0  0  0
    0.4310   -0.8450    1.1050 C   0  0  1  0  0  0  0  0  0  0  0  0
    1.2520   -0.3370    0.0120 C   0  0  0  0  0  0  0  0  0  0  0  0
    1.1990   -0.7230   -1.3100 C   0  0  0  0  0  0  0  0  0  0  0  0
    2.0420   -0.1960   -2.2700 C   0  0  0  0  0  0  0  0  0  0  0  0
    2.9720    0.7500   -1.9100 C   0  0  0  0  0  0  0  0  0  0  0  0
    3.8240    1.2760   -2.9110 N   0  0  0  0  0  0  0  0  0  0  0  0
    3.0630    1.1670   -0.6070 C   0  0  0  0  0  0  0  0  0  0  0  0
    4.0180    2.1290   -0.2780 O   0  0  0  0  0  0  0  0  0  0  0  0
    2.2100    0.6210    0.3160 C   0  0  0  0  0  0  0  0  0  0  0  0
   -1.0170   -0.9490    1.0050 C   0  0  2  0  0  0  0  0  0  0  0  0
   -1.7230   -2.0480    0.3340 C   0  0  0  0  0  0  0  0  0  0  0  0
   -1.5260   -3.4350    0.8760 C   0  0  0  0  0  0  0  0  0  0  0  0
   -1.6140    0.3980    0.7500 C   0  0  0  0  0  0  0  0  0  0  0  0
   -2.0460    1.1520    1.8120 C   0  0  0  0  0  0  0  0  0  0  0  0
   -2.6200    2.4210    1.6530 C   0  0  0  0  0  0  0  0  0  0  0  0
   -2.7570    2.9340    0.3840 C   0  0  0  0  0  0  0  0  0  0  0  0
   -3.3260    4.2010    0.1630 N   0  0  0  0  0  0  0  0  0  0  0  0
   -2.3240    2.1830   -0.7100 C   0  0  0  0  0  0  0  0  0  0  0  0
   -2.4430    2.6600   -1.9990 O   0  0  0  0  0  0  0  0  0  0  0  0
   -1.7700    0.9480   -0.4970 C   0  0  0  0  0  0  0  0  0  0  0  0
  1  2  1  0
  3  2  1  6
  3  4  1  0
  3 12  1  0
  4  5  2  0
  4 11  1  0
  5  6  1  0
  6  7  2  0
  7  8  1  0
  7  9  1  0
  9 10  1  0
  9 11  2  0
 12 13  1  6
 12 15  1  0
 13 14  1  0
 15 16  2  0
 15 22  1  0
 16 17  1  0
 17 18  2  0
 18 19  1  0
 18 20  1  0
 20 21  1  0
 20 22  2  0
M  END
>  <MODEL>  (4) 
       2

$$$$
../data/sim29_sdf/CHEMBL155014.pdb
     RDKit          3D

 22 23  0  0  1  0  0  0  0  0999 V2000
   -1.2420   -3.9550   -0.1920 C   0  0  0  0  0  0  0  0  0  0  0  0
   -1.6680   -2.5460   -0.2920 C   0  0  0  0  0  0  0  0  0  0  0  0
   -0.7340   -1.4760    0.1420 C   0  0  2  0  0  0  0  0  0  0  0  0
   -1.4580   -0.1850   -0.0730 C   0  0  0  0  0  0  0  0  0  0  0  0
   -1.8350    0.2480   -1.3200 C   0  0  0  0  0  0  0  0  0  0  0  0
   -2.5060    1.4530   -1.4880 C   0  0  0  0  0  0  0  0  0  0  0  0
   -2.8080    2.2420   -0.3870 C   0  0  0  0  0  0  0  0  0  0  0  0
   -3.4980    3.4800   -0.5650 N   0  0  0  0  0  0  0  0  0  0  0  0
   -2.4340    1.8160    0.8600 C   0  0  0  0  0  0  0  0  0  0  0  0
   -2.7410    2.6140    1.9490 O   0  0  0  0  0  0  0  0  0  0  0  0
   -1.7610    0.6040    1.0060 C   0  0  0  0  0  0  0  0  0  0  0  0
    0.5710   -1.3820   -0.5530 C   0  0  2  0  0  0  0  0  0  0  0  0
    1.5070   -2.5240   -0.4630 C   0  0  0  0  0  0  0  0  0  0  0  0
    1.9750   -2.8830    0.9220 C   0  0  0  0  0  0  0  0  0  0  0  0
    1.2690   -0.1240   -0.1310 C   0  0  0  0  0  0  0  0  0  0  0  0
    1.5450    0.1310    1.1960 C   0  0  0  0  0  0  0  0  0  0  0  0
    2.1960    1.2970    1.5860 C   0  0  0  0  0  0  0  0  0  0  0  0
    2.5920    2.2450    0.6710 C   0  0  0  0  0  0  0  0  0  0  0  0
    3.2610    3.4470    1.0450 N   0  0  0  0  0  0  0  0  0  0  0  0
    2.3190    1.9960   -0.6570 C   0  0  0  0  0  0  0  0  0  0  0  0
    2.7080    2.9360   -1.6060 O   0  0  0  0  0  0  0  0  0  0  0  0
    1.6740    0.8410   -1.0420 C   0  0  0  0  0  0  0  0  0  0  0  0
  1  2  1  0
  3  2  1  6
  3  4  1  0
  3 12  1  0
  4  5  2  0
  4 11  1  0
  5  6  1  0
  6  7  2  0
  7  8  1  0
  7  9  1  0
  9 10  1  0
  9 11  2  0
 12 13  1  1
 12 15  1  0
 13 14  1  0
 15 16  2  0
 15 22  1  0
 16 17  1  0
 17 18  2  0
 18 19  1  0
 18 20  1  0
 20 21  1  0
 20 22  2  0
M  END
>  <MODEL>  (5) 
       3

$$$$
../data/sim29_sdf/CHEMBL155014.pdb
     RDKit          3D

 22 23  0  0  1  0  0  0  0  0999 V2000
    0.2800    2.4890   -1.0400 C   0  0  0  0  0  0  0  0  0  0  0  0
   -0.3180    1.4730   -1.9220 C   0  0  0  0  0  0  0  0  0  0  0  0
   -0.7980    0.1960   -1.3470 C   0  0  2  0  0  0  0  0  0  0  0  0
   -1.8450    0.3050   -0.3100 C   0  0  0  0  0  0  0  0  0  0  0  0
   -1.6380    0.9620    0.8890 C   0  0  0  0  0  0  0  0  0  0  0  0
   -2.6620    1.0180    1.8100 C   0  0  0  0  0  0  0  0  0  0  0  0
   -3.8920    0.4420    1.5840 C   0  0  0  0  0  0  0  0  0  0  0  0
   -4.9210    0.5240    2.5660 N   0  0  0  0  0  0  0  0  0  0  0  0
   -4.1280   -0.2190    0.3990 C   0  0  0  0  0  0  0  0  0  0  0  0
   -5.3680   -0.8000    0.1720 O   0  0  0  0  0  0  0  0  0  0  0  0
   -3.0900   -0.2600   -0.5010 C   0  0  0  0  0  0  0  0  0  0  0  0
    0.2460   -0.8600   -1.1060 C   0  0  2  0  0  0  0  0  0  0  0  0
   -0.3680   -2.1210   -0.5310 C   0  0  0  0  0  0  0  0  0  0  0  0
    0.7450   -3.1330   -0.3180 C   0  0  0  0  0  0  0  0  0  0  0  0
    1.4740   -0.4630   -0.4330 C   0  0  0  0  0  0  0  0  0  0  0  0
    1.5520   -0.3630    0.9400 C   0  0  0  0  0  0  0  0  0  0  0  0
    2.7230    0.0080    1.5670 C   0  0  0  0  0  0  0  0  0  0  0  0
    3.8620    0.2940    0.8630 C   0  0  0  0  0  0  0  0  0  0  0  0
    5.0830    0.6780    1.4760 N   0  0  0  0  0  0  0  0  0  0  0  0
    3.8270    0.2060   -0.5090 C   0  0  0  0  0  0  0  0  0  0  0  0
    4.9720    0.4890   -1.2830 O   0  0  0  0  0  0  0  0  0  0  0  0
    2.6470   -0.1670   -1.1200 C   0  0  0  0  0  0  0  0  0  0  0  0
  1  2  1  0
  3  2  1  1
  3  4  1  0
  3 12  1  0
  4  5  2  0
  4 11  1  0
  5  6  1  0
  6  7  2  0
  7  8  1  0
  7  9  1  0
  9 10  1  0
  9 11  2  0
 12 13  1  1
 12 15  1  0
 13 14  1  0
 15 16  2  0
 15 22  1  0
 16 17  1  0
 17 18  2  0
 18 19  1  0
 18 20  1  0
 20 21  1  0
 20 22  2  0
M  END
>  <MODEL>  (6) 
       4

$$$$
../data/sim29_sdf/CHEMBL155014.pdb
     RDKit          3D

 22 23  0  0  1  0  0  0  0  0999 V2000
   -2.5360    2.6420    1.4330 C   0  0  0  0  0  0  0  0  0  0  0  0
   -1.3850    1.9430    2.0210 C   0  0  0  0  0  0  0  0  0  0  0  0
   -0.5730    1.0150    1.2190 C   0  0  1  0  0  0  0  0  0  0  0  0
   -1.3240   -0.1330    0.6380 C   0  0  0  0  0  0  0  0  0  0  0  0
   -2.3370    0.0540   -0.2770 C   0  0  0  0  0  0  0  0  0  0  0  0
   -3.0080   -1.0270   -0.7930 C   0  0  0  0  0  0  0  0  0  0  0  0
   -2.7340   -2.3340   -0.4490 C   0  0  0  0  0  0  0  0  0  0  0  0
   -3.4630   -3.4320   -1.0140 N   0  0  0  0  0  0  0  0  0  0  0  0
   -1.7260   -2.5290    0.4630 C   0  0  0  0  0  0  0  0  0  0  0  0
   -1.4040   -3.8230    0.8480 O   0  0  0  0  0  0  0  0  0  0  0  0
   -1.0530   -1.4460    0.9790 C   0  0  0  0  0  0  0  0  0  0  0  0
    0.4910    1.5820    0.3460 C   0  0  2  0  0  0  0  0  0  0  0  0
    0.1240    2.5240   -0.7190 C   0  0  0  0  0  0  0  0  0  0  0  0
    1.4380    2.9010   -1.4350 C   0  0  0  0  0  0  0  0  0  0  0  0
    1.3500    0.4780   -0.1380 C   0  0  0  0  0  0  0  0  0  0  0  0
    1.0140   -0.3130   -1.1950 C   0  0  0  0  0  0  0  0  0  0  0  0
    1.8490   -1.3420   -1.6070 C   0  0  0  0  0  0  0  0  0  0  0  0
    3.0440   -1.5860   -0.9510 C   0  0  0  0  0  0  0  0  0  0  0  0
    3.8860   -2.6510   -1.3940 N   0  0  0  0  0  0  0  0  0  0  0  0
    3.4100   -0.8010    0.1220 C   0  0  0  0  0  0  0  0  0  0  0  0
    4.6070   -1.0660    0.7600 O   0  0  0  0  0  0  0  0  0  0  0  0
    2.5470    0.2080    0.4930 C   0  0  0  0  0  0  0  0  0  0  0  0
  1  2  1  0
  3  2  1  6
  3  4  1  0
  3 12  1  0
  4  5  2  0
  4 11  1  0
  5  6  1  0
  6  7  2  0
  7  8  1  0
  7  9  1  0
  9 10  1  0
  9 11  2  0
 12 13  1  6
 12 15  1  0
 13 14  1  0
 15 16  2  0
 15 22  1  0
 16 17  1  0
 17 18  2  0
 18 19  1  0
 18 20  1  0
 20 21  1  0
 20 22  2  0
M  END
>  <MODEL>  (7) 
       5

$$$$
../data/sim29_sdf/CHEMBL2062273.pdb
     RDKit          3D

 22 21  0  0  1  0  0  0  0  0999 V2000
   -3.6590    0.4820    0.1730 N   0  0  0  0  0  0  0  0  0  0  0  0
   -2.2510    0.6640   -0.2090 C   0  0  0  0  0  0  0  0  0  0  0  0
   -1.4790   -0.3910    0.5470 C   0  0  1  0  0  0  0  0  0  0  0  0
   -1.9140   -1.6750    0.2120 O   0  0  0  0  0  0  0  0  0  0  0  0
   -0.0160   -0.3380    0.2430 C   0  0  0  0  0  0  0  0  0  0  0  0
    0.7960   -1.3850    0.6320 C   0  0  0  0  0  0  0  0  0  0  0  0
    2.1570   -1.3950    0.3790 C   0  0  0  0  0  0  0  0  0  0  0  0
    2.7560   -0.3420   -0.2810 C   0  0  0  0  0  0  0  0  0  0  0  0
    4.1330   -0.3350   -0.5450 O   0  0  0  0  0  0  0  0  0  0  0  0
    1.9610    0.7130   -0.6780 C   0  0  0  0  0  0  0  0  0  0  0  0
    2.5650    1.7630   -1.3370 O   0  0  0  0  0  0  0  0  0  0  0  0
    0.5850    0.7130   -0.4170 C   0  0  0  0  0  0  0  0  0  0  0  0
    1.9220   -0.4380    1.4690 O   0  0  0  0  0  0  0  0  0  0  0  0
    1.7450    0.0530    0.3270 C   0  0  0  0  0  0  0  0  0  0  0  0
    2.8490    0.1220   -0.5090 O   0  0  0  0  0  0  0  0  0  0  0  0
    0.3850    0.5110   -0.0240 C   0  0  1  0  0  0  0  0  0  0  0  0
    0.3240    1.0350   -1.3190 O   0  0  0  0  0  0  0  0  0  0  0  0
   -0.6320   -0.6080    0.0360 C   0  0  1  0  0  0  0  0  0  0  0  0
   -0.6730   -1.2170    1.2790 O   0  0  0  0  0  0  0  0  0  0  0  0
   -1.9510   -0.0390   -0.3220 C   0  0  0  0  0  0  0  0  0  0  0  0
   -2.9430   -0.1260    0.4360 O   0  0  0  0  0  0  0  0  0  0  0  0
   -2.0890    0.6070   -1.5350 O   0  0  0  0  0  0  0  0  0  0  0  0
  1  2  1  0
  2  3  1  0
  3  4  1  6
  3  5  1  0
  5  6  2  0
  5 12  1  0
  6  7  1  0
  7  8  2  0
  8  9  1  0
  8 10  1  0
 10 11  1  0
 10 12  2  0
 13 14  2  0
 14 15  1  0
 14 16  1  0
 16 17  1  6
 16 18  1  0
 18 19  1  1
 18 20  1  0
 20 21  2  0
 20 22  1  0
M  CHG  1   1   1
M  END
>  <MODEL>  (8) 
       1

$$$$
../data/sim29_sdf/CHEMBL2062273.pdb
     RDKit          3D

 22 21  0  0  1  0  0  0  0  0999 V2000
   -3.6140   -0.2310   -0.7000 N   0  0  0  0  0  0  0  0  0  0  0  0
   -2.1810   -0.2590   -0.7610 C   0  0  0  0  0  0  0  0  0  0  0  0
   -1.5190    0.2980    0.4740 C   0  0  2  0  0  0  0  0  0  0  0  0
   -1.8570    1.6190    0.7130 O   0  0  0  0  0  0  0  0  0  0  0  0
   -0.0700    0.0770    0.3520 C   0  0  0  0  0  0  0  0  0  0  0  0
    0.4910   -0.9960    1.0000 C   0  0  0  0  0  0  0  0  0  0  0  0
    1.8340   -1.2800    0.9420 C   0  0  0  0  0  0  0  0  0  0  0  0
    2.6630   -0.4430    0.1930 C   0  0  0  0  0  0  0  0  0  0  0  0
    4.0320   -0.6990    0.1100 O   0  0  0  0  0  0  0  0  0  0  0  0
    2.1320    0.6330   -0.4640 C   0  0  0  0  0  0  0  0  0  0  0  0
    2.9750    1.4600   -1.2090 O   0  0  0  0  0  0  0  0  0  0  0  0
    0.7790    0.8820   -0.3790 C   0  0  0  0  0  0  0  0  0  0  0  0
    1.1500   -1.6710    1.2020 O   0  0  0  0  0  0  0  0  0  0  0  0
    1.2310   -0.5000    0.7580 C   0  0  0  0  0  0  0  0  0  0  0  0
    1.8650    0.4260    1.5730 O   0  0  0  0  0  0  0  0  0  0  0  0
    0.6660   -0.2060   -0.5540 C   0  0  1  0  0  0  0  0  0  0  0  0
    0.1140   -1.3630   -1.0810 O   0  0  0  0  0  0  0  0  0  0  0  0
   -0.3900    0.8750   -0.5310 C   0  0  1  0  0  0  0  0  0  0  0  0
   -0.7970    1.0730   -1.8460 O   0  0  0  0  0  0  0  0  0  0  0  0
   -1.5660    0.4970    0.2700 C   0  0  0  0  0  0  0  0  0  0  0  0
   -2.6830    0.4100   -0.2920 O   0  0  0  0  0  0  0  0  0  0  0  0
   -1.4400    0.2390    1.6270 O   0  0  0  0  0  0  0  0  0  0  0  0
  1  2  1  0
  2  3  1  0
  3  4  1  6
  3  5  1  0
  5  6  2  0
  5 12  1  0
  6  7  1  0
  7  8  2  0
  8  9  1  0
  8 10  1  0
 10 11  1  0
 10 12  2  0
 13 14  2  0
 14 15  1  0
 14 16  1  0
 16 17  1  1
 16 18  1  0
 18 19  1  6
 18 20  1  0
 20 21  2  0
 20 22  1  0
M  CHG  1   1   1
M  END
>  <MODEL>  (9) 
       2

$$$$
../data/sim29_sdf/CHEMBL2062273.pdb
     RDKit          3D

 22 21  0  0  1  0  0  0  0  0999 V2000
    2.3710    1.0190    0.3220 N   0  0  0  0  0  0  0  0  0  0  0  0
    2.4030    0.0520   -0.7730 C   0  0  0  0  0  0  0  0  0  0  0  0
    1.4410   -1.0770   -0.3780 C   0  0  2  0  0  0  0  0  0  0  0  0
    1.3960   -2.0580   -1.3600 O   0  0  0  0  0  0  0  0  0  0  0  0
    0.0740   -0.5160   -0.1340 C   0  0  0  0  0  0  0  0  0  0  0  0
   -0.7640   -0.1780   -1.1820 C   0  0  0  0  0  0  0  0  0  0  0  0
   -2.0220    0.3380   -0.9280 C   0  0  0  0  0  0  0  0  0  0  0  0
   -2.4870    0.5360    0.3570 C   0  0  0  0  0  0  0  0  0  0  0  0
   -3.7720    1.0640    0.5910 O   0  0  0  0  0  0  0  0  0  0  0  0
   -1.6590    0.2030    1.4090 C   0  0  0  0  0  0  0  0  0  0  0  0
   -2.1230    0.4010    2.7170 O   0  0  0  0  0  0  0  0  0  0  0  0
   -0.4060   -0.3110    1.1450 C   0  0  0  0  0  0  0  0  0  0  0  0
    2.6860    0.5670    0.2700 O   0  0  0  0  0  0  0  0  0  0  0  0
    1.4570    0.7380    0.0450 C   0  0  0  0  0  0  0  0  0  0  0  0
    0.9680    2.0320    0.1950 O   0  0  0  0  0  0  0  0  0  0  0  0
    0.6200   -0.3940   -0.3530 C   0  0  1  0  0  0  0  0  0  0  0  0
    1.4580   -1.5330   -0.4360 O   0  0  0  0  0  0  0  0  0  0  0  0
   -0.4460   -0.7800    0.6350 C   0  0  2  0  0  0  0  0  0  0  0  0
   -1.0800   -1.9080    0.0910 O   0  0  0  0  0  0  0  0  0  0  0  0
   -1.4610    0.2280    0.9060 C   0  0  0  0  0  0  0  0  0  0  0  0
   -2.6600   -0.0130    0.6170 O   0  0  0  0  0  0  0  0  0  0  0  0
   -1.2390    1.4790    1.4750 O   0  0  0  0  0  0  0  0  0  0  0  0
  1  2  1  0
  2  3  1  0
  3  4  1  6
  3  5  1  0
  5  6  2  0
  5 12  1  0
  6  7  1  0
  7  8  2  0
  8  9  1  0
  8 10  1  0
 10 11  1  0
 10 12  2  0
 13 14  2  0
 14 15  1  0
 14 16  1  0
 16 17  1  1
 16 18  1  0
 18 19  1  6
 18 20  1  0
 20 21  2  0
 20 22  1  0
M  CHG  1   1   1
M  END
>  <MODEL>  (10) 
       3

$$$$
../data/sim29_sdf/CHEMBL288787.pdb
     RDKit          3D

 11 11  0  0  1  0  0  0  0  0999 V2000
   -2.5910    1.1090    0.2650 N   0  0  0  0  0  0  0  0  0  0  0  0
   -2.0010    0.1120   -0.6240 C   0  0  2  0  0  0  0  0  0  0  0  0
   -2.6430   -1.1000   -0.3950 O   0  0  0  0  0  0  0  0  0  0  0  0
   -0.5610   -0.0640   -0.3710 C   0  0  0  0  0  0  0  0  0  0  0  0
   -0.0170   -1.3290   -0.3020 C   0  0  0  0  0  0  0  0  0  0  0  0
    1.3390   -1.5450   -0.0650 C   0  0  0  0  0  0  0  0  0  0  0  0
    2.1810   -0.4650    0.1090 C   0  0  0  0  0  0  0  0  0  0  0  0
    3.5350   -0.6600    0.3470 O   0  0  0  0  0  0  0  0  0  0  0  0
    1.6590    0.8140    0.0440 C   0  0  0  0  0  0  0  0  0  0  0  0
    2.5350    1.8750    0.2230 O   0  0  0  0  0  0  0  0  0  0  0  0
    0.3110    1.0070   -0.1920 C   0  0  0  0  0  0  0  0  0  0  0  0
  2  1  1  1
  2  3  1  0
  2  4  1  0
  4  5  2  0
  4 11  1  0
  5  6  1  0
  6  7  2  0
  7  8  1  0
  7  9  1  0
  9 10  1  0
  9 11  2  0
M  CHG  1   1   1
M  END
$$$$
../data/sim29_sdf/CHEMBL432.pdb
     RDKit          3D

 12 12  0  0  1  0  0  0  0  0999 V2000
   -2.7120   -0.7540    1.1150 N   0  0  0  0  0  0  0  0  0  0  0  0
   -2.5810   -0.1110   -0.1580 C   0  0  0  0  0  0  0  0  0  0  0  0
   -1.3980    0.7730   -0.1880 C   0  0  2  0  0  0  0  0  0  0  0  0
   -1.3100    1.4100   -1.4460 O   0  0  0  0  0  0  0  0  0  0  0  0
   -0.0930    0.1290    0.0370 C   0  0  0  0  0  0  0  0  0  0  0  0
    0.1430   -1.1390    0.4460 C   0  0  0  0  0  0  0  0  0  0  0  0
    1.4410   -1.6260    0.6250 C   0  0  0  0  0  0  0  0  0  0  0  0
    2.4950   -0.7750    0.3710 C   0  0  0  0  0  0  0  0  0  0  0  0
    3.8100   -1.2110    0.5340 O   0  0  0  0  0  0  0  0  0  0  0  0
    2.3150    0.5260   -0.0480 C   0  0  0  0  0  0  0  0  0  0  0  0
    3.4050    1.3510   -0.2930 O   0  0  0  0  0  0  0  0  0  0  0  0
    1.0170    0.9510   -0.2070 C   0  0  0  0  0  0  0  0  0  0  0  0
  1  2  1  0
  2  3  1  0
  3  4  1  6
  3  5  1  0
  5  6  2  0
  5 12  1  0
  6  7  1  0
  7  8  2  0
  8  9  1  0
  8 10  1  0
 10 11  1  0
 10 12  2  0
M  CHG  1   1   1
M  END
$$$$
../data/sim29_sdf/CHEMBL2062274.pdb
     RDKit          3D

 32 30  0  0  1  0  0  0  0  0999 V2000
   -2.4440    0.8920   -0.9700 N   0  0  0  0  0  0  0  0  0  0  0  0
   -2.4390    0.6020    0.4480 C   0  0  0  0  0  0  0  0  0  0  0  0
   -1.5540   -0.6000    0.7080 C   0  0  1  0  0  0  0  0  0  0  0  0
   -1.9840   -1.7380    0.0380 O   0  0  0  0  0  0  0  0  0  0  0  0
   -0.1260   -0.2880    0.4730 C   0  0  0  0  0  0  0  0  0  0  0  0
    0.7190    0.0650    1.5030 C   0  0  0  0  0  0  0  0  0  0  0  0
    2.0500    0.3580    1.3050 C   0  0  0  0  0  0  0  0  0  0  0  0
    2.5870    0.3040    0.0350 C   0  0  0  0  0  0  0  0  0  0  0  0
    3.9300    0.6080   -0.1090 O   0  0  0  0  0  0  0  0  0  0  0  0
    1.7660   -0.0460   -1.0140 C   0  0  0  0  0  0  0  0  0  0  0  0
    2.2670   -0.1130   -2.3070 O   0  0  0  0  0  0  0  0  0  0  0  0
    0.4160   -0.3400   -0.7850 C   0  0  0  0  0  0  0  0  0  0  0  0
   -2.7750   -0.2330   -0.0090 O   0  0  0  0  0  0  0  0  0  0  0  0
   -1.6400    0.1770   -0.3310 C   0  0  0  0  0  0  0  0  0  0  0  0
   -1.4670    1.5160   -0.5810 O   0  0  0  0  0  0  0  0  0  0  0  0
   -0.5170   -0.7610   -0.4400 C   0  0  2  0  0  0  0  0  0  0  0  0
   -1.0080   -2.0620   -0.2400 O   0  0  0  0  0  0  0  0  0  0  0  0
    0.5700   -0.5220    0.6200 C   0  0  1  0  0  0  0  0  0  0  0  0
    1.5090   -1.5530    0.3500 O   0  0  0  0  0  0  0  0  0  0  0  0
    1.2460    0.7740    0.4340 C   0  0  0  0  0  0  0  0  0  0  0  0
    2.4300    0.7600   -0.0010 O   0  0  0  0  0  0  0  0  0  0  0  0
    0.6920    2.0010    0.7010 O   0  0  0  0  0  0  0  0  0  0  0  0
   -0.9460   -1.6930    0.7760 O   0  0  0  0  0  0  0  0  0  0  0  0
   -1.3710   -0.6380    0.2790 C   0  0  0  0  0  0  0  0  0  0  0  0
   -2.6250   -0.1760    0.5940 O   0  0  0  0  0  0  0  0  0  0  0  0
   -0.5340    0.1310   -0.6540 C   0  0  1  0  0  0  0  0  0  0  0  0
   -1.1950    1.2900   -1.1030 O   0  0  0  0  0  0  0  0  0  0  0  0
    0.7770    0.5720   -0.0450 C   0  0  1  0  0  0  0  0  0  0  0  0
    0.5330    1.4380    1.0200 O   0  0  0  0  0  0  0  0  0  0  0  0
    1.5890   -0.5450    0.4410 C   0  0  0  0  0  0  0  0  0  0  0  0
    1.9620   -0.6340    1.6350 O   0  0  0  0  0  0  0  0  0  0  0  0
    1.9700   -1.5520   -0.4290 O   0  0  0  0  0  0  0  0  0  0  0  0
  1  2  1  0
  2  3  1  0
  3  4  1  6
  3  5  1  0
  5  6  2  0
  5 12  1  0
  6  7  1  0
  7  8  2  0
  8  9  1  0
  8 10  1  0
 10 11  1  0
 10 12  2  0
 13 14  2  0
 14 15  1  0
 14 16  1  0
 16 17  1  1
 16 18  1  0
 18 19  1  6
 18 20  1  0
 20 21  2  0
 20 22  1  0
 23 24  2  0
 24 25  1  0
 24 26  1  0
 26 27  1  1
 26 28  1  0
 28 29  1  1
 28 30  1  0
 30 31  2  0
 30 32  1  0
M  CHG  1   1   1
M  END
>  <MODEL>  (13) 
       1

$$$$
../data/sim29_sdf/CHEMBL2062274.pdb
     RDKit          3D

 32 30  0  0  1  0  0  0  0  0999 V2000
   -3.6640    0.4610   -0.2570 N   0  0  0  0  0  0  0  0  0  0  0  0
   -2.2260    0.6660   -0.2540 C   0  0  0  0  0  0  0  0  0  0  0  0
   -1.4880   -0.6030   -0.0030 C   0  0  1  0  0  0  0  0  0  0  0  0
   -1.7630   -1.5880   -0.9540 O   0  0  0  0  0  0  0  0  0  0  0  0
   -0.0180   -0.3670    0.0310 C   0  0  0  0  0  0  0  0  0  0  0  0
    0.8350   -1.4750    0.1000 C   0  0  0  0  0  0  0  0  0  0  0  0
    2.1880   -1.2570    0.1260 C   0  0  0  0  0  0  0  0  0  0  0  0
    2.7380    0.0150    0.0860 C   0  0  0  0  0  0  0  0  0  0  0  0
    4.1080    0.2410    0.1120 O   0  0  0  0  0  0  0  0  0  0  0  0
    1.9090    1.0860    0.0200 C   0  0  0  0  0  0  0  0  0  0  0  0
    2.4040    2.3900   -0.0230 O   0  0  0  0  0  0  0  0  0  0  0  0
    0.5270    0.8840   -0.0070 C   0  0  0  0  0  0  0  0  0  0  0  0
    2.3080   -0.6300    1.1840 O   0  0  0  0  0  0  0  0  0  0  0  0
    1.9590   -0.0850    0.1080 C   0  0  0  0  0  0  0  0  0  0  0  0
    2.9720    0.6210   -0.5670 O   0  0  0  0  0  0  0  0  0  0  0  0
    0.5800   -0.1670   -0.4340 C   0  0  2  0  0  0  0  0  0  0  0  0
    0.4980    0.5230   -1.6180 O   0  0  0  0  0  0  0  0  0  0  0  0
   -0.4360    0.2870    0.5880 C   0  0  2  0  0  0  0  0  0  0  0  0
   -0.2810   -0.4610    1.7500 O   0  0  0  0  0  0  0  0  0  0  0  0
   -1.8160    0.1720    0.1270 C   0  0  0  0  0  0  0  0  0  0  0  0
   -2.2810    0.7310   -0.9000 O   0  0  0  0  0  0  0  0  0  0  0  0
   -2.7180   -0.6000    0.8450 O   0  0  0  0  0  0  0  0  0  0  0  0
    0.7680    1.7660   -0.7450 O   0  0  0  0  0  0  0  0  0  0  0  0
    1.2800    0.6340   -0.5660 C   0  0  0  0  0  0  0  0  0  0  0  0
    2.6420    0.5860   -0.3250 O   0  0  0  0  0  0  0  0  0  0  0  0
    0.5320   -0.6230   -0.5960 C   0  0  1  0  0  0  0  0  0  0  0  0
    1.3980   -1.6840   -0.3600 O   0  0  0  0  0  0  0  0  0  0  0  0
   -0.6170   -0.6660    0.3780 C   0  0  1  0  0  0  0  0  0  0  0  0
   -0.2160   -0.5810    1.6990 O   0  0  0  0  0  0  0  0  0  0  0  0
   -1.6270    0.3560    0.1220 C   0  0  0  0  0  0  0  0  0  0  0  0
   -2.1660    0.4930   -1.0270 O   0  0  0  0  0  0  0  0  0  0  0  0
   -2.0470    1.2210    1.1100 O   0  0  0  0  0  0  0  0  0  0  0  0
  1  2  1  0
  2  3  1  0
  3  4  1  6
  3  5  1  0
  5  6  2  0
  5 12  1  0
  6  7  1  0
  7  8  2  0
  8  9  1  0
  8 10  1  0
 10 11  1  0
 10 12  2  0
 13 14  2  0
 14 15  1  0
 14 16  1  0
 16 17  1  6
 16 18  1  0
 18 19  1  1
 18 20  1  0
 20 21  2  0
 20 22  1  0
 23 24  2  0
 24 25  1  0
 24 26  1  0
 26 27  1  1
 26 28  1  0
 28 29  1  1
 28 30  1  0
 30 31  2  0
 30 32  1  0
M  CHG  1   1   1
M  END
>  <MODEL>  (14) 
       2

$$$$
../data/sim29_sdf/CHEMBL2062274.pdb
     RDKit          3D

 32 30  0  0  1  0  0  0  0  0999 V2000
    3.6110   -0.1310    0.4960 N   0  0  0  0  0  0  0  0  0  0  0  0
    2.2090    0.1480    0.5160 C   0  0  0  0  0  0  0  0  0  0  0  0
    1.4230   -0.6210   -0.5220 C   0  0  1  0  0  0  0  0  0  0  0  0
    1.5200   -1.9760   -0.3800 O   0  0  0  0  0  0  0  0  0  0  0  0
    0.0230   -0.1200   -0.4670 C   0  0  0  0  0  0  0  0  0  0  0  0
   -0.4610    0.8100   -1.3660 C   0  0  0  0  0  0  0  0  0  0  0  0
   -1.7610    1.2740   -1.3140 C   0  0  0  0  0  0  0  0  0  0  0  0
   -2.6330    0.8190   -0.3500 C   0  0  0  0  0  0  0  0  0  0  0  0
   -3.9560    1.2880   -0.2930 O   0  0  0  0  0  0  0  0  0  0  0  0
   -2.1650   -0.1100    0.5550 C   0  0  0  0  0  0  0  0  0  0  0  0
   -3.0400   -0.5740    1.5310 O   0  0  0  0  0  0  0  0  0  0  0  0
   -0.8640   -0.5670    0.4940 C   0  0  0  0  0  0  0  0  0  0  0  0
   -0.3750   -2.1320   -0.2850 O   0  0  0  0  0  0  0  0  0  0  0  0
   -0.8960   -1.0400   -0.5860 C   0  0  0  0  0  0  0  0  0  0  0  0
   -2.2900   -0.9850   -0.6360 O   0  0  0  0  0  0  0  0  0  0  0  0
   -0.1590    0.2070   -0.8950 C   0  0  1  0  0  0  0  0  0  0  0  0
   -1.0850    1.2140   -1.2890 O   0  0  0  0  0  0  0  0  0  0  0  0
    0.4150    0.7400    0.4070 C   0  0  2  0  0  0  0  0  0  0  0  0
    0.9960    1.9970    0.0760 O   0  0  0  0  0  0  0  0  0  0  0  0
    1.4810   -0.0990    0.9790 C   0  0  0  0  0  0  0  0  0  0  0  0
    2.6560    0.3470    1.0080 O   0  0  0  0  0  0  0  0  0  0  0  0
    1.2910   -1.3640    1.5000 O   0  0  0  0  0  0  0  0  0  0  0  0
   -2.6330   -0.2740   -0.0350 O   0  0  0  0  0  0  0  0  0  0  0  0
   -1.4920    0.2290    0.1200 C   0  0  0  0  0  0  0  0  0  0  0  0
   -1.3400    1.5600   -0.2310 O   0  0  0  0  0  0  0  0  0  0  0  0
   -0.3930   -0.6000    0.6560 C   0  0  1  0  0  0  0  0  0  0  0  0
   -0.8100   -1.8890    0.9250 O   0  0  0  0  0  0  0  0  0  0  0  0
    0.7820   -0.6780   -0.2930 C   0  0  1  0  0  0  0  0  0  0  0  0
    0.4690   -1.2960   -1.4890 O   0  0  0  0  0  0  0  0  0  0  0  0
    1.4470    0.6250   -0.4890 C   0  0  0  0  0  0  0  0  0  0  0  0
    1.6760    1.0700   -1.6310 O   0  0  0  0  0  0  0  0  0  0  0  0
    1.8230    1.3670    0.6110 O   0  0  0  0  0  0  0  0  0  0  0  0
  1  2  1  0
  2  3  1  0
  3  4  1  1
  3  5  1  0
  5  6  2  0
  5 12  1  0
  6  7  1  0
  7  8  2  0
  8  9  1  0
  8 10  1  0
 10 11  1  0
 10 12  2  0
 13 14  2  0
 14 15  1  0
 14 16  1  0
 16 17  1  1
 16 18  1  0
 18 19  1  6
 18 20  1  0
 20 21  2  0
 20 22  1  0
 23 24  2  0
 24 25  1  0
 24 26  1  0
 26 27  1  6
 26 28  1  0
 28 29  1  6
 28 30  1  0
 30 31  2  0
 30 32  1  0
M  CHG  1   1   1
M  END
>  <MODEL>  (15) 
       3

$$$$
../data/sim29_sdf/CHEMBL2062274.pdb
     RDKit          3D

 32 30  0  0  1  0  0  0  0  0999 V2000
   -3.6670   -0.5950   -0.1620 N   0  0  0  0  0  0  0  0  0  0  0  0
   -2.2760   -0.8970   -0.0260 C   0  0  0  0  0  0  0  0  0  0  0  0
   -1.4400    0.3610   -0.0770 C   0  0  1  0  0  0  0  0  0  0  0  0
   -1.8030    1.2120    0.9470 O   0  0  0  0  0  0  0  0  0  0  0  0
   -0.0050    0.0740    0.0410 C   0  0  0  0  0  0  0  0  0  0  0  0
    0.5710   -1.1610   -0.0750 C   0  0  0  0  0  0  0  0  0  0  0  0
    1.9310   -1.3350    0.0510 C   0  0  0  0  0  0  0  0  0  0  0  0
    2.7410   -0.2490    0.2980 C   0  0  0  0  0  0  0  0  0  0  0  0
    4.1210   -0.4230    0.4260 O   0  0  0  0  0  0  0  0  0  0  0  0
    2.2050    1.0080    0.4210 C   0  0  0  0  0  0  0  0  0  0  0  0
    3.0270    2.1220    0.6750 O   0  0  0  0  0  0  0  0  0  0  0  0
    0.8400    1.1520    0.2910 C   0  0  0  0  0  0  0  0  0  0  0  0
   -1.9610    0.4980    1.3320 O   0  0  0  0  0  0  0  0  0  0  0  0
   -1.5130    0.2760    0.1890 C   0  0  0  0  0  0  0  0  0  0  0  0
   -1.9410    1.0870   -0.8380 O   0  0  0  0  0  0  0  0  0  0  0  0
   -0.5590   -0.8300   -0.0010 C   0  0  2  0  0  0  0  0  0  0  0  0
   -0.2980   -1.4800    1.1790 O   0  0  0  0  0  0  0  0  0  0  0  0
    0.7210   -0.3940   -0.6750 C   0  0  1  0  0  0  0  0  0  0  0  0
    0.3980    0.2520   -1.8530 O   0  0  0  0  0  0  0  0  0  0  0  0
    1.5450    0.4710    0.1830 C   0  0  0  0  0  0  0  0  0  0  0  0
    1.8510    1.6180   -0.2050 O   0  0  0  0  0  0  0  0  0  0  0  0
    1.9670   -0.0080    1.4060 O   0  0  0  0  0  0  0  0  0  0  0  0
    1.9850   -1.0560   -1.1270 O   0  0  0  0  0  0  0  0  0  0  0  0
    1.7790   -0.1700   -0.2650 C   0  0  0  0  0  0  0  0  0  0  0  0
    2.7670    0.7720   -0.0540 O   0  0  0  0  0  0  0  0  0  0  0  0
    0.4870   -0.2100    0.4570 C   0  0  1  0  0  0  0  0  0  0  0  0
    0.3700    0.8170    1.3850 O   0  0  0  0  0  0  0  0  0  0  0  0
   -0.6090   -0.0330   -0.5730 C   0  0  1  0  0  0  0  0  0  0  0  0
   -0.5450   -1.0370   -1.5370 O   0  0  0  0  0  0  0  0  0  0  0  0
   -1.9590   -0.0430    0.0250 C   0  0  0  0  0  0  0  0  0  0  0  0
   -2.8170   -0.8740   -0.3630 O   0  0  0  0  0  0  0  0  0  0  0  0
   -2.3570    0.8390    1.0240 O   0  0  0  0  0  0  0  0  0  0  0  0
  1  2  1  0
  2  3  1  0
  3  4  1  1
  3  5  1  0
  5  6  2  0
  5 12  1  0
  6  7  1  0
  7  8  2  0
  8  9  1  0
  8 10  1  0
 10 11  1  0
 10 12  2  0
 13 14  2  0
 14 15  1  0
 14 16  1  0
 16 17  1  1
 16 18  1  0
 18 19  1  6
 18 20  1  0
 20 21  2  0
 20 22  1  0
 23 24  2  0
 24 25  1  0
 24 26  1  0
 26 27  1  1
 26 28  1  0
 28 29  1  6
 28 30  1  0
 30 31  2  0
 30 32  1  0
M  CHG  1   1   1
M  END
>  <MODEL>  (16) 
       4

$$$$
../data/sim29_sdf/CHEMBL1320902.pdb
     RDKit          3D

 13 13  0  0  1  0  0  0  0  0999 V2000
   -3.4550   -0.5470   -0.2250 C   0  0  0  0  0  0  0  0  0  0  0  0
   -2.1490    0.2300   -0.0220 C   0  0  2  0  0  0  0  0  0  0  0  0
   -2.2260    1.4220   -0.8180 N   0  0  0  0  0  0  0  0  0  0  0  0
   -1.0390   -0.6930   -0.3590 C   0  0  2  0  0  0  0  0  0  0  0  0
   -1.1400   -1.8040    0.5040 O   0  0  0  0  0  0  0  0  0  0  0  0
    0.3180   -0.1410   -0.2120 C   0  0  0  0  0  0  0  0  0  0  0  0
    0.6590    1.1610   -0.0470 C   0  0  0  0  0  0  0  0  0  0  0  0
    1.9690    1.5660    0.0780 C   0  0  0  0  0  0  0  0  0  0  0  0
    2.9920    0.6150    0.0340 C   0  0  0  0  0  0  0  0  0  0  0  0
    4.3080    1.0300    0.1600 O   0  0  0  0  0  0  0  0  0  0  0  0
    2.6890   -0.7100   -0.1310 C   0  0  0  0  0  0  0  0  0  0  0  0
    3.7070   -1.6650   -0.1750 O   0  0  0  0  0  0  0  0  0  0  0  0
    1.3630   -1.0640   -0.2510 C   0  0  0  0  0  0  0  0  0  0  0  0
  2  1  1  6
  2  3  1  0
  2  4  1  0
  4  5  1  1
  4  6  1  0
  6  7  2  0
  6 13  1  0
  7  8  1  0
  8  9  2  0
  9 10  1  0
  9 11  1  0
 11 12  1  0
 11 13  2  0
M  CHG  1   3   1
M  END
$$$$
../data/sim29_sdf/CHEMBL764.pdb
     RDKit          3D

 13 13  0  0  1  0  0  0  0  0999 V2000
   -2.3790    0.5040    0.9160 C   0  0  0  0  0  0  0  0  0  0  0  0
   -2.2480   -0.3230   -0.3460 C   0  0  1  0  0  0  0  0  0  0  0  0
   -1.9940    0.5880   -1.4460 N   0  0  0  0  0  0  0  0  0  0  0  0
   -1.1040   -1.3030   -0.2330 C   0  0  1  0  0  0  0  0  0  0  0  0
   -1.0390   -2.0030   -1.4550 O   0  0  0  0  0  0  0  0  0  0  0  0
    0.2020   -0.6240   -0.0800 C   0  0  0  0  0  0  0  0  0  0  0  0
    0.7460    0.0350   -1.1630 C   0  0  0  0  0  0  0  0  0  0  0  0
    1.9750    0.6880   -1.0620 C   0  0  0  0  0  0  0  0  0  0  0  0
    2.6230    0.6530    0.1520 C   0  0  0  0  0  0  0  0  0  0  0  0
    3.8660    1.2960    0.3080 O   0  0  0  0  0  0  0  0  0  0  0  0
    2.1170    0.0070    1.2590 C   0  0  0  0  0  0  0  0  0  0  0  0
    2.7990   -0.0150    2.4910 O   0  0  0  0  0  0  0  0  0  0  0  0
    0.8930   -0.6280    1.1120 C   0  0  0  0  0  0  0  0  0  0  0  0
  2  1  1  1
  2  3  1  0
  2  4  1  0
  4  5  1  6
  4  6  1  0
  6  7  2  0
  6 13  1  0
  7  8  1  0
  8  9  2  0
  9 10  1  0
  9 11  1  0
 11 12  1  0
 11 13  2  0
M  CHG  1   3   1
M  END
>  <MODEL>  (18) 
       1

$$$$
../data/sim29_sdf/CHEMBL764.pdb
     RDKit          3D

 13 13  0  0  1  0  0  0  0  0999 V2000
    1.8390   -1.3080    0.8540 C   0  0  0  0  0  0  0  0  0  0  0  0
    2.1120    0.1330    0.4780 C   0  0  1  0  0  0  0  0  0  0  0  0
    3.5020    0.3840    0.2300 N   0  0  0  0  0  0  0  0  0  0  0  0
    1.3160    0.5670   -0.7330 C   0  0  1  0  0  0  0  0  0  0  0  0
    1.6940   -0.1270   -1.8790 O   0  0  0  0  0  0  0  0  0  0  0  0
   -0.1140    0.4060   -0.4360 C   0  0  0  0  0  0  0  0  0  0  0  0
   -0.8560    1.5060   -0.0620 C   0  0  0  0  0  0  0  0  0  0  0  0
   -2.2000    1.4440    0.2310 C   0  0  0  0  0  0  0  0  0  0  0  0
   -2.8510    0.2290    0.1520 C   0  0  0  0  0  0  0  0  0  0  0  0
   -4.2220    0.1320    0.4450 O   0  0  0  0  0  0  0  0  0  0  0  0
   -2.1300   -0.8840   -0.2200 C   0  0  0  0  0  0  0  0  0  0  0  0
   -2.7640   -2.1250   -0.3070 O   0  0  0  0  0  0  0  0  0  0  0  0
   -0.7790   -0.7980   -0.5100 C   0  0  0  0  0  0  0  0  0  0  0  0
  2  1  1  6
  2  3  1  0
  2  4  1  0
  4  5  1  6
  4  6  1  0
  6  7  2  0
  6 13  1  0
  7  8  1  0
  8  9  2  0
  9 10  1  0
  9 11  1  0
 11 12  1  0
 11 13  2  0
M  CHG  1   3   1
M  END
>  <MODEL>  (19) 
       2

$$$$
../data/sim29_sdf/CHEMBL1434513.pdb
     RDKit          3D

 23 21  0  0  1  0  0  0  0  0999 V2000
   -3.7250    0.1930    0.3190 N   0  0  0  0  0  0  0  0  0  0  0  0
   -2.2990    0.4380    0.4510 C   0  0  0  0  0  0  0  0  0  0  0  0
   -1.5430   -0.4580   -0.4930 C   0  0  2  0  0  0  0  0  0  0  0  0
   -1.8420   -1.7830   -0.1560 O   0  0  0  0  0  0  0  0  0  0  0  0
   -0.0820   -0.2860   -0.3600 C   0  0  0  0  0  0  0  0  0  0  0  0
    0.8030   -1.2190   -0.8560 C   0  0  0  0  0  0  0  0  0  0  0  0
    2.1500   -1.0540   -0.7290 C   0  0  0  0  0  0  0  0  0  0  0  0
    2.6700    0.0480   -0.1020 C   0  0  0  0  0  0  0  0  0  0  0  0
    4.0450    0.2480    0.0450 O   0  0  0  0  0  0  0  0  0  0  0  0
    1.8140    1.0140    0.4130 C   0  0  0  0  0  0  0  0  0  0  0  0
    2.3100    2.1400    1.0520 O   0  0  0  0  0  0  0  0  0  0  0  0
    0.4510    0.8160    0.2670 C   0  0  0  0  0  0  0  0  0  0  0  0
   -0.0010    0.3820   -0.0000 O   0  0  0  0  0  0  0  0  0  0  0  0
   -2.5110   -0.4250   -1.0280 O   0  0  0  0  0  0  0  0  0  0  0  0
   -1.5160    0.1700   -0.5550 C   0  0  0  0  0  0  0  0  0  0  0  0
   -1.7510    1.1790    0.3640 O   0  0  0  0  0  0  0  0  0  0  0  0
   -0.1630   -0.2290   -0.9930 C   0  0  2  0  0  0  0  0  0  0  0  0
   -0.2890   -1.2630   -1.9120 O   0  0  0  0  0  0  0  0  0  0  0  0
    0.7100   -0.6460    0.1850 C   0  0  2  0  0  0  0  0  0  0  0  0
    0.1940   -1.7260    0.8580 O   0  0  0  0  0  0  0  0  0  0  0  0
    1.0150    0.5050    1.0470 C   0  0  0  0  0  0  0  0  0  0  0  0
    0.8440    0.5540    2.2790 O   0  0  0  0  0  0  0  0  0  0  0  0
    1.5440    1.6420    0.4350 O   0  0  0  0  0  0  0  0  0  0  0  0
  1  2  1  0
  2  3  1  0
  3  4  1  1
  3  5  1  0
  5  6  2  0
  5 12  1  0
  6  7  1  0
  7  8  2  0
  8  9  1  0
  8 10  1  0
 10 11  1  0
 10 12  2  0
 14 15  2  0
 15 16  1  0
 15 17  1  0
 17 18  1  6
 17 19  1  0
 19 20  1  1
 19 21  1  0
 21 22  2  0
 21 23  1  0
M  CHG  1   1   1
M  END
>  <MODEL>  (20) 
       1

$$$$
../data/sim29_sdf/CHEMBL1434513.pdb
     RDKit          3D

 23 21  0  0  1  0  0  0  0  0999 V2000
    3.7640   -0.2000   -0.0370 N   0  0  0  0  0  0  0  0  0  0  0  0
    2.4080   -0.7690   -0.0160 C   0  0  0  0  0  0  0  0  0  0  0  0
    1.4540    0.3740   -0.1130 C   0  0  2  0  0  0  0  0  0  0  0  0
    1.6660    1.2110    0.9760 O   0  0  0  0  0  0  0  0  0  0  0  0
    0.0440   -0.0130   -0.1340 C   0  0  0  0  0  0  0  0  0  0  0  0
   -0.4280   -1.2810   -0.3440 C   0  0  0  0  0  0  0  0  0  0  0  0
   -1.7940   -1.5130   -0.3390 C   0  0  0  0  0  0  0  0  0  0  0  0
   -2.7090   -0.5150   -0.1300 C   0  0  0  0  0  0  0  0  0  0  0  0
   -4.0900   -0.7680   -0.1280 O   0  0  0  0  0  0  0  0  0  0  0  0
   -2.2440    0.7550    0.0800 C   0  0  0  0  0  0  0  0  0  0  0  0
   -3.1310    1.8090    0.2980 O   0  0  0  0  0  0  0  0  0  0  0  0
   -0.8880    1.0040    0.0790 C   0  0  0  0  0  0  0  0  0  0  0  0
   -0.0020    0.3940   -0.0000 O   0  0  0  0  0  0  0  0  0  0  0  0
   -2.2180    0.3180   -1.5990 O   0  0  0  0  0  0  0  0  0  0  0  0
   -1.8200   -0.2460   -0.5560 C   0  0  0  0  0  0  0  0  0  0  0  0
   -2.7710   -0.6110    0.3740 O   0  0  0  0  0  0  0  0  0  0  0  0
   -0.4040   -0.4960   -0.3570 C   0  0  2  0  0  0  0  0  0  0  0  0
   -0.2200   -1.1380    0.8860 O   0  0  0  0  0  0  0  0  0  0  0  0
    0.4520    0.7400   -0.2980 C   0  0  2  0  0  0  0  0  0  0  0  0
    0.3910    1.5020   -1.4540 O   0  0  0  0  0  0  0  0  0  0  0  0
    1.8390    0.3270   -0.0330 C   0  0  0  0  0  0  0  0  0  0  0  0
    2.7550    0.6670   -0.8010 O   0  0  0  0  0  0  0  0  0  0  0  0
    2.1390   -0.4380    1.0660 O   0  0  0  0  0  0  0  0  0  0  0  0
  1  2  1  0
  2  3  1  0
  3  4  1  1
  3  5  1  0
  5  6  2  0
  5 12  1  0
  6  7  1  0
  7  8  2  0
  8  9  1  0
  8 10  1  0
 10 11  1  0
 10 12  2  0
 14 15  2  0
 15 16  1  0
 15 17  1  0
 17 18  1  1
 17 19  1  0
 19 20  1  6
 19 21  1  0
 21 22  2  0
 21 23  1  0
M  CHG  1   1   1
M  END
>  <MODEL>  (21) 
       2

$$$$
../data/sim29_sdf/CHEMBL1734806.pdb
     RDKit          3D

 13 12  0  0  1  0  0  0  0  0999 V2000
    0.6880    0.0000    0.0000 Cl  0  0  0  0  0  0  0  0  0  0  0  0
    2.7470   -0.8880   -0.6540 N   0  0  0  0  0  0  0  0  0  0  0  0
    2.4500    0.4930   -0.4230 C   0  0  0  0  0  0  0  0  0  0  0  0
    1.4570    0.7130    0.6920 C   0  0  2  0  0  0  0  0  0  0  0  0
    1.9790    0.1820    1.8910 O   0  0  0  0  0  0  0  0  0  0  0  0
    0.1260    0.1790    0.3980 C   0  0  0  0  0  0  0  0  0  0  0  0
   -0.1950   -1.1580    0.5090 C   0  0  0  0  0  0  0  0  0  0  0  0
   -1.4630   -1.6160    0.2210 C   0  0  0  0  0  0  0  0  0  0  0  0
   -2.4610   -0.7550   -0.1880 C   0  0  0  0  0  0  0  0  0  0  0  0
   -3.7430   -1.2150   -0.4800 O   0  0  0  0  0  0  0  0  0  0  0  0
   -2.1580    0.5680   -0.3020 C   0  0  0  0  0  0  0  0  0  0  0  0
   -3.1300    1.4700   -0.7100 O   0  0  0  0  0  0  0  0  0  0  0  0
   -0.8990    1.0180   -0.0160 C   0  0  0  0  0  0  0  0  0  0  0  0
  2  3  1  0
  3  4  1  0
  4  5  1  1
  4  6  1  0
  6  7  2  0
  6 13  1  0
  7  8  1  0
  8  9  2  0
  9 10  1  0
  9 11  1  0
 11 12  1  0
 11 13  2  0
M  CHG  1   2   1
M  END
$$$$
../data/sim29_sdf/CHEMBL1356607.pdb
     RDKit          3D

 22 21  0  0  1  0  0  0  0  0999 V2000
    3.6090   -0.1600    0.4700 N   0  0  0  0  0  0  0  0  0  0  0  0
    2.1880   -0.1480    0.6110 C   0  0  0  0  0  0  0  0  0  0  0  0
    1.4600   -0.3330   -0.6990 C   0  0  2  0  0  0  0  0  0  0  0  0
    1.7600    0.6610   -1.6130 O   0  0  0  0  0  0  0  0  0  0  0  0
   -0.0050   -0.3370   -0.4290 C   0  0  0  0  0  0  0  0  0  0  0  0
   -0.7250   -1.5080   -0.3920 C   0  0  0  0  0  0  0  0  0  0  0  0
   -2.0730   -1.4400   -0.1380 C   0  0  0  0  0  0  0  0  0  0  0  0
   -2.7040   -0.2430    0.0760 C   0  0  0  0  0  0  0  0  0  0  0  0
   -4.0700   -0.1650    0.3350 O   0  0  0  0  0  0  0  0  0  0  0  0
   -1.9750    0.9390    0.0390 C   0  0  0  0  0  0  0  0  0  0  0  0
   -2.6190    2.1700    0.2580 O   0  0  0  0  0  0  0  0  0  0  0  0
   -0.6250    0.8610   -0.2170 C   0  0  0  0  0  0  0  0  0  0  0  0
   -2.4910   -0.3890    0.8740 O   0  0  0  0  0  0  0  0  0  0  0  0
   -1.5100    0.1570    0.3380 C   0  0  0  0  0  0  0  0  0  0  0  0
   -1.3080    1.5030    0.5290 O   0  0  0  0  0  0  0  0  0  0  0  0
   -0.6020   -0.6550   -0.4820 C   0  0  2  0  0  0  0  0  0  0  0  0
   -1.0260   -1.9800   -0.5160 O   0  0  0  0  0  0  0  0  0  0  0  0
    0.8410   -0.5430   -0.0460 C   0  0  2  0  0  0  0  0  0  0  0  0
    0.9230   -1.0960    1.2330 O   0  0  0  0  0  0  0  0  0  0  0  0
    1.3290    0.8530   -0.0680 C   0  0  0  0  0  0  0  0  0  0  0  0
    1.7580    1.4310    0.9620 O   0  0  0  0  0  0  0  0  0  0  0  0
    1.3410    1.6020   -1.2330 O   0  0  0  0  0  0  0  0  0  0  0  0
  1  2  1  0
  2  3  1  0
  3  4  1  6
  3  5  1  0
  5  6  2  0
  5 12  1  0
  6  7  1  0
  7  8  2  0
  8  9  1  0
  8 10  1  0
 10 11  1  0
 10 12  2  0
 13 14  2  0
 14 15  1  0
 14 16  1  0
 16 17  1  1
 16 18  1  0
 18 19  1  1
 18 20  1  0
 20 21  2  0
 20 22  1  0
M  CHG  1   1   1
M  END
>  <MODEL>  (23) 
       1

$$$$
../data/sim29_sdf/CHEMBL1356607.pdb
     RDKit          3D

 22 21  0  0  1  0  0  0  0  0999 V2000
   -2.7080    1.0410    0.5030 N   0  0  0  0  0  0  0  0  0  0  0  0
   -2.5830   -0.0790   -0.4120 C   0  0  0  0  0  0  0  0  0  0  0  0
   -1.4110   -0.9570   -0.0840 C   0  0  2  0  0  0  0  0  0  0  0  0
   -1.5610   -1.4620    1.1970 O   0  0  0  0  0  0  0  0  0  0  0  0
   -0.1140   -0.2890   -0.1800 C   0  0  0  0  0  0  0  0  0  0  0  0
    0.0840    0.9460   -0.7680 C   0  0  0  0  0  0  0  0  0  0  0  0
    1.3460    1.5100   -0.8180 C   0  0  0  0  0  0  0  0  0  0  0  0
    2.4480    0.8810   -0.2930 C   0  0  0  0  0  0  0  0  0  0  0  0
    3.6890    1.4970   -0.3720 O   0  0  0  0  0  0  0  0  0  0  0  0
    2.2590   -0.3530    0.2970 C   0  0  0  0  0  0  0  0  0  0  0  0
    3.3810   -0.9810    0.8240 O   0  0  0  0  0  0  0  0  0  0  0  0
    0.9930   -0.9160    0.3450 C   0  0  0  0  0  0  0  0  0  0  0  0
   -2.6710    0.3110    0.5300 O   0  0  0  0  0  0  0  0  0  0  0  0
   -1.5500    0.7780    0.1930 C   0  0  0  0  0  0  0  0  0  0  0  0
   -1.3190    2.1110    0.4220 O   0  0  0  0  0  0  0  0  0  0  0  0
   -0.5080   -0.0790   -0.4310 C   0  0  2  0  0  0  0  0  0  0  0  0
   -0.9720   -1.3670   -0.5560 O   0  0  0  0  0  0  0  0  0  0  0  0
    0.7270   -0.0550    0.4430 C   0  0  1  0  0  0  0  0  0  0  0  0
    0.4920   -0.5330    1.7070 O   0  0  0  0  0  0  0  0  0  0  0  0
    1.7900   -0.7850   -0.2660 C   0  0  0  0  0  0  0  0  0  0  0  0
    2.3710   -1.7310    0.2920 O   0  0  0  0  0  0  0  0  0  0  0  0
    2.1600   -0.4400   -1.5480 O   0  0  0  0  0  0  0  0  0  0  0  0
  1  2  1  0
  2  3  1  0
  3  4  1  1
  3  5  1  0
  5  6  2  0
  5 12  1  0
  6  7  1  0
  7  8  2  0
  8  9  1  0
  8 10  1  0
 10 11  1  0
 10 12  2  0
 13 14  2  0
 14 15  1  0
 14 16  1  0
 16 17  1  1
 16 18  1  0
 18 19  1  1
 18 20  1  0
 20 21  2  0
 20 22  1  0
M  CHG  1   1   1
M  END
>  <MODEL>  (24) 
       2

$$$$
../data/sim29_sdf/CHEMBL1356607.pdb
     RDKit          3D

 22 21  0  0  1  0  0  0  0  0999 V2000
    3.7480   -0.0190   -0.2650 N   0  0  0  0  0  0  0  0  0  0  0  0
    2.3610   -0.0980   -0.6210 C   0  0  0  0  0  0  0  0  0  0  0  0
    1.4890    0.0870    0.6240 C   0  0  2  0  0  0  0  0  0  0  0  0
    1.7740   -0.9070    1.5520 O   0  0  0  0  0  0  0  0  0  0  0  0
    0.0640    0.1470    0.2830 C   0  0  0  0  0  0  0  0  0  0  0  0
   -0.5920    1.3650    0.2180 C   0  0  0  0  0  0  0  0  0  0  0  0
   -1.9420    1.4410   -0.1030 C   0  0  0  0  0  0  0  0  0  0  0  0
   -2.6380    0.2800   -0.3620 C   0  0  0  0  0  0  0  0  0  0  0  0
   -3.9810    0.3580   -0.6810 O   0  0  0  0  0  0  0  0  0  0  0  0
   -2.0050   -0.9440   -0.3030 C   0  0  0  0  0  0  0  0  0  0  0  0
   -2.6820   -2.1250   -0.5590 O   0  0  0  0  0  0  0  0  0  0  0  0
   -0.6500   -0.9850    0.0220 C   0  0  0  0  0  0  0  0  0  0  0  0
    2.5630   -0.9820    0.9110 O   0  0  0  0  0  0  0  0  0  0  0  0
    1.8790   -0.0850    0.3710 C   0  0  0  0  0  0  0  0  0  0  0  0
    2.3700    1.2080    0.3650 O   0  0  0  0  0  0  0  0  0  0  0  0
    0.5740   -0.3880   -0.2490 C   0  0  1  0  0  0  0  0  0  0  0  0
    0.3150   -1.7320   -0.1110 O   0  0  0  0  0  0  0  0  0  0  0  0
   -0.4640    0.4760    0.4380 C   0  0  2  0  0  0  0  0  0  0  0  0
   -0.4320    0.1270    1.7950 O   0  0  0  0  0  0  0  0  0  0  0  0
   -1.8180    0.2860   -0.0950 C   0  0  0  0  0  0  0  0  0  0  0  0
   -2.7350   -0.1300    0.6390 O   0  0  0  0  0  0  0  0  0  0  0  0
   -2.0890    0.5670   -1.4150 O   0  0  0  0  0  0  0  0  0  0  0  0
  1  2  1  0
  2  3  1  0
  3  4  1  1
  3  5  1  0
  5  6  2  0
  5 12  1  0
  6  7  1  0
  7  8  2  0
  8  9  1  0
  8 10  1  0
 10 11  1  0
 10 12  2  0
 13 14  2  0
 14 15  1  0
 14 16  1  0
 16 17  1  1
 16 18  1  0
 18 19  1  1
 18 20  1  0
 20 21  2  0
 20 22  1  0
M  CHG  1   1   1
M  END
>  <MODEL>  (25) 
       3

$$$$
../data/sim29_sdf/CHEMBL1356607.pdb
     RDKit          3D

 22 21  0  0  1  0  0  0  0  0999 V2000
   -2.4210    1.1880    1.0320 N   0  0  0  0  0  0  0  0  0  0  0  0
   -2.4080    0.6440   -0.2960 C   0  0  0  0  0  0  0  0  0  0  0  0
   -1.6520   -0.6470   -0.3970 C   0  0  2  0  0  0  0  0  0  0  0  0
   -2.2380   -1.5790    0.4350 O   0  0  0  0  0  0  0  0  0  0  0  0
   -0.2250   -0.5190   -0.1030 C   0  0  0  0  0  0  0  0  0  0  0  0
    0.5100   -1.6820    0.0760 C   0  0  0  0  0  0  0  0  0  0  0  0
    1.8610   -1.6250    0.3560 C   0  0  0  0  0  0  0  0  0  0  0  0
    2.5240   -0.4170    0.4660 C   0  0  0  0  0  0  0  0  0  0  0  0
    3.8840   -0.4190    0.7490 O   0  0  0  0  0  0  0  0  0  0  0  0
    1.8040    0.7300    0.2900 C   0  0  0  0  0  0  0  0  0  0  0  0
    2.4310    1.9510    0.3930 O   0  0  0  0  0  0  0  0  0  0  0  0
    0.4560    0.6670    0.0110 C   0  0  0  0  0  0  0  0  0  0  0  0
    2.2090   -1.3220   -0.6760 O   0  0  0  0  0  0  0  0  0  0  0  0
    1.8650   -0.3390    0.0540 C   0  0  0  0  0  0  0  0  0  0  0  0
    2.7740    0.0290    1.0390 O   0  0  0  0  0  0  0  0  0  0  0  0
    0.5760    0.3450   -0.1580 C   0  0  2  0  0  0  0  0  0  0  0  0
    0.4640    1.3650    0.7680 O   0  0  0  0  0  0  0  0  0  0  0  0
   -0.6130   -0.5760   -0.0090 C   0  0  2  0  0  0  0  0  0  0  0  0
   -0.5910   -1.6280   -0.8920 O   0  0  0  0  0  0  0  0  0  0  0  0
   -1.8330    0.2500   -0.1860 C   0  0  0  0  0  0  0  0  0  0  0  0
   -2.6550   -0.0890   -1.0720 O   0  0  0  0  0  0  0  0  0  0  0  0
   -2.1010    1.3730    0.5800 O   0  0  0  0  0  0  0  0  0  0  0  0
  1  2  1  0
  2  3  1  0
  3  4  1  1
  3  5  1  0
  5  6  2  0
  5 12  1  0
  6  7  1  0
  7  8  2  0
  8  9  1  0
  8 10  1  0
 10 11  1  0
 10 12  2  0
 13 14  2  0
 14 15  1  0
 14 16  1  0
 16 17  1  1
 16 18  1  0
 18 19  1  6
 18 20  1  0
 20 21  2  0
 20 22  1  0
M  CHG  1   1   1
M  END
>  <MODEL>  (26) 
       4

$$$$
../data/sim29_sdf/CHEMBL1545498.pdb
     RDKit          3D

 11 11  0  0  0  0  0  0  0  0999 V2000
   -2.3310   -0.0780   -1.3330 C   0  0  0  0  0  0  0  0  0  0  0  0
   -1.8750   -0.1770    0.1040 C   0  0  0  0  0  0  0  0  0  0  0  0
   -2.4000    1.0450    0.8270 C   0  0  0  0  0  0  0  0  0  0  0  0
   -0.4260   -0.3110    0.1710 C   0  0  0  0  0  0  0  0  0  0  0  0
    0.1360   -1.4120    0.7620 C   0  0  0  0  0  0  0  0  0  0  0  0
    1.5010   -1.6140    0.8670 C   0  0  0  0  0  0  0  0  0  0  0  0
    2.3220   -0.6560    0.3500 C   0  0  0  0  0  0  0  0  0  0  0  0
    3.7140   -0.8170    0.4330 O   0  0  0  0  0  0  0  0  0  0  0  0
    1.8300    0.4800   -0.2590 C   0  0  0  0  0  0  0  0  0  0  0  0
    2.7380    1.4270   -0.7710 N   0  0  0  0  0  0  0  0  0  0  0  0
    0.4540    0.6360   -0.3390 C   0  0  0  0  0  0  0  0  0  0  0  0
  1  2  1  0
  2  3  1  0
  2  4  1  0
  4  5  2  0
  4 11  1  0
  5  6  1  0
  6  7  2  0
  7  8  1  0
  7  9  1  0
  9 10  1  0
  9 11  2  0
M  END
$$$$
../data/sim29_sdf/CHEMBL2130595.pdb
     RDKit          3D

 32 30  0  0  1  0  0  0  0  0999 V2000
    3.7300   -0.5830   -0.4380 N   0  0  0  0  0  0  0  0  0  0  0  0
    2.2890   -0.7450   -0.4410 C   0  0  0  0  0  0  0  0  0  0  0  0
    1.6010    0.4950    0.1150 C   0  0  2  0  0  0  0  0  0  0  0  0
    2.0100    0.7340    1.4270 O   0  0  0  0  0  0  0  0  0  0  0  0
    0.1230    0.3730    0.0150 C   0  0  0  0  0  0  0  0  0  0  0  0
   -0.6050    0.9970   -0.9780 C   0  0  0  0  0  0  0  0  0  0  0  0
   -1.9770    0.8860   -1.0710 C   0  0  0  0  0  0  0  0  0  0  0  0
   -2.6920    0.1350   -0.1620 C   0  0  0  0  0  0  0  0  0  0  0  0
   -4.0830    0.0240   -0.2600 O   0  0  0  0  0  0  0  0  0  0  0  0
   -1.9820   -0.4950    0.8360 C   0  0  0  0  0  0  0  0  0  0  0  0
   -2.6980   -1.2500    1.7520 O   0  0  0  0  0  0  0  0  0  0  0  0
   -0.6110   -0.3770    0.9200 C   0  0  0  0  0  0  0  0  0  0  0  0
   -2.1760    1.1100   -0.0700 O   0  0  0  0  0  0  0  0  0  0  0  0
   -1.5680    0.0480   -0.4350 C   0  0  0  0  0  0  0  0  0  0  0  0
   -1.7740   -0.3110   -1.7700 O   0  0  0  0  0  0  0  0  0  0  0  0
   -0.7190   -0.7270    0.4910 C   0  0  1  0  0  0  0  0  0  0  0  0
   -0.2060   -1.8100   -0.1970 O   0  0  0  0  0  0  0  0  0  0  0  0
    0.4220    0.1550    0.9950 C   0  0  1  0  0  0  0  0  0  0  0  0
    1.2660   -0.5180    1.8410 O   0  0  0  0  0  0  0  0  0  0  0  0
    1.1280    0.7800   -0.1520 C   0  0  0  0  0  0  0  0  0  0  0  0
    0.4720    1.4290   -1.0060 O   0  0  0  0  0  0  0  0  0  0  0  0
    2.4980    0.7010   -0.3580 O   0  0  0  0  0  0  0  0  0  0  0  0
    1.3390   -0.9740    1.5860 O   0  0  0  0  0  0  0  0  0  0  0  0
    1.5720   -0.4320    0.4860 C   0  0  0  0  0  0  0  0  0  0  0  0
    2.6970   -0.8970   -0.2230 O   0  0  0  0  0  0  0  0  0  0  0  0
    0.7090    0.6390   -0.0350 C   0  0  1  0  0  0  0  0  0  0  0  0
    1.2770    1.2000   -1.2030 O   0  0  0  0  0  0  0  0  0  0  0  0
   -0.6510    0.0910   -0.4980 C   0  0  2  0  0  0  0  0  0  0  0  0
   -1.3940    1.1710   -1.0280 O   0  0  0  0  0  0  0  0  0  0  0  0
   -1.4050   -0.5470    0.5760 C   0  0  0  0  0  0  0  0  0  0  0  0
   -1.0590   -1.5870    1.1460 O   0  0  0  0  0  0  0  0  0  0  0  0
   -2.6120    0.0270    1.0240 O   0  0  0  0  0  0  0  0  0  0  0  0
  1  2  1  0
  2  3  1  0
  3  4  1  1
  3  5  1  0
  5  6  2  0
  5 12  1  0
  6  7  1  0
  7  8  2  0
  8  9  1  0
  8 10  1  0
 10 11  1  0
 10 12  2  0
 13 14  2  0
 14 15  1  0
 14 16  1  0
 16 17  1  6
 16 18  1  0
 18 19  1  6
 18 20  1  0
 20 21  2  0
 20 22  1  0
 23 24  2  0
 24 25  1  0
 24 26  1  0
 26 27  1  6
 26 28  1  0
 28 29  1  1
 28 30  1  0
 30 31  2  0
 30 32  1  0
M  CHG  1   1   1
M  END
>  <MODEL>  (28) 
       1

$$$$
../data/sim29_sdf/CHEMBL2130595.pdb
     RDKit          3D

 32 30  0  0  1  0  0  0  0  0999 V2000
    2.8290    0.7160    0.0990 N   0  0  0  0  0  0  0  0  0  0  0  0
    2.4210   -0.6520    0.1650 C   0  0  0  0  0  0  0  0  0  0  0  0
    1.2610   -0.9860   -0.7340 C   0  0  2  0  0  0  0  0  0  0  0  0
    1.5460   -0.7430   -2.0760 O   0  0  0  0  0  0  0  0  0  0  0  0
    0.0090   -0.3210   -0.3490 C   0  0  0  0  0  0  0  0  0  0  0  0
   -0.2500    0.9810   -0.7250 C   0  0  0  0  0  0  0  0  0  0  0  0
   -1.4440    1.5550   -0.3350 C   0  0  0  0  0  0  0  0  0  0  0  0
   -2.3830    0.8790    0.4130 C   0  0  0  0  0  0  0  0  0  0  0  0
   -3.5710    1.4690    0.7940 O   0  0  0  0  0  0  0  0  0  0  0  0
   -2.1310   -0.4280    0.7950 C   0  0  0  0  0  0  0  0  0  0  0  0
   -3.0820   -1.0960    1.5460 O   0  0  0  0  0  0  0  0  0  0  0  0
   -0.9440   -0.9950    0.4050 C   0  0  0  0  0  0  0  0  0  0  0  0
   -1.8680   -1.3770   -0.9860 O   0  0  0  0  0  0  0  0  0  0  0  0
   -1.7630   -0.2930   -0.3520 C   0  0  0  0  0  0  0  0  0  0  0  0
   -2.8470    0.1570    0.3550 O   0  0  0  0  0  0  0  0  0  0  0  0
   -0.4560    0.4040   -0.4320 C   0  0  1  0  0  0  0  0  0  0  0  0
   -0.4150    1.5760    0.2820 O   0  0  0  0  0  0  0  0  0  0  0  0
    0.6280   -0.5530   -0.0270 C   0  0  2  0  0  0  0  0  0  0  0  0
    0.5620   -0.9150    1.2990 O   0  0  0  0  0  0  0  0  0  0  0  0
    1.9600    0.0240   -0.2930 C   0  0  0  0  0  0  0  0  0  0  0  0
    2.2310    0.4210   -1.4450 O   0  0  0  0  0  0  0  0  0  0  0  0
    2.9160    0.1390    0.6960 O   0  0  0  0  0  0  0  0  0  0  0  0
    2.2820    1.1720   -0.4130 O   0  0  0  0  0  0  0  0  0  0  0  0
    1.8370    0.0350   -0.1530 C   0  0  0  0  0  0  0  0  0  0  0  0
    2.7270   -0.8950    0.3700 O   0  0  0  0  0  0  0  0  0  0  0  0
    0.3960   -0.2870   -0.4040 C   0  0  1  0  0  0  0  0  0  0  0  0
    0.1160   -1.5960   -0.0480 O   0  0  0  0  0  0  0  0  0  0  0  0
   -0.4790    0.7090    0.3130 C   0  0  2  0  0  0  0  0  0  0  0  0
   -0.3410    0.6470    1.6830 O   0  0  0  0  0  0  0  0  0  0  0  0
   -1.8940    0.3740   -0.0210 C   0  0  0  0  0  0  0  0  0  0  0  0
   -2.2330    0.3750   -1.2410 O   0  0  0  0  0  0  0  0  0  0  0  0
   -2.8400    0.0680    0.9220 O   0  0  0  0  0  0  0  0  0  0  0  0
  1  2  1  0
  2  3  1  0
  3  4  1  6
  3  5  1  0
  5  6  2  0
  5 12  1  0
  6  7  1  0
  7  8  2  0
  8  9  1  0
  8 10  1  0
 10 11  1  0
 10 12  2  0
 13 14  2  0
 14 15  1  0
 14 16  1  0
 16 17  1  1
 16 18  1  0
 18 19  1  1
 18 20  1  0
 20 21  2  0
 20 22  1  0
 23 24  2  0
 24 25  1  0
 24 26  1  0
 26 27  1  1
 26 28  1  0
 28 29  1  1
 28 30  1  0
 30 31  2  0
 30 32  1  0
M  CHG  1   1   1
M  END
>  <MODEL>  (29) 
       2

$$$$
../data/sim29_sdf/CHEMBL2130595.pdb
     RDKit          3D

 32 30  0  0  1  0  0  0  0  0999 V2000
    3.7180   -0.0290    0.3050 N   0  0  0  0  0  0  0  0  0  0  0  0
    2.3470    0.4070    0.0240 C   0  0  0  0  0  0  0  0  0  0  0  0
    1.4620   -0.7910    0.0980 C   0  0  2  0  0  0  0  0  0  0  0  0
    1.8360   -1.7620   -0.8300 O   0  0  0  0  0  0  0  0  0  0  0  0
    0.0240   -0.4680    0.0210 C   0  0  0  0  0  0  0  0  0  0  0  0
   -0.8800   -1.5050   -0.0730 C   0  0  0  0  0  0  0  0  0  0  0  0
   -2.2320   -1.2680   -0.1480 C   0  0  0  0  0  0  0  0  0  0  0  0
   -2.7290    0.0480   -0.1300 C   0  0  0  0  0  0  0  0  0  0  0  0
   -4.0800    0.2760   -0.2050 O   0  0  0  0  0  0  0  0  0  0  0  0
   -1.8470    1.1020   -0.0360 C   0  0  0  0  0  0  0  0  0  0  0  0
   -2.2370    2.4340   -0.0110 O   0  0  0  0  0  0  0  0  0  0  0  0
   -0.4970    0.7920    0.0360 C   0  0  0  0  0  0  0  0  0  0  0  0
   -1.2240    1.9540    0.3670 O   0  0  0  0  0  0  0  0  0  0  0  0
   -1.2560    0.7530    0.0080 C   0  0  0  0  0  0  0  0  0  0  0  0
   -1.9610    0.3380   -1.1120 O   0  0  0  0  0  0  0  0  0  0  0  0
   -0.5340   -0.2940    0.7750 C   0  0  2  0  0  0  0  0  0  0  0  0
    0.1260    0.2380    1.8630 O   0  0  0  0  0  0  0  0  0  0  0  0
    0.4400   -0.9950   -0.1700 C   0  0  2  0  0  0  0  0  0  0  0  0
    1.0550   -2.0120    0.5540 O   0  0  0  0  0  0  0  0  0  0  0  0
    1.4540   -0.0730   -0.6920 C   0  0  0  0  0  0  0  0  0  0  0  0
    2.6640   -0.2840   -0.4490 O   0  0  0  0  0  0  0  0  0  0  0  0
    1.1430    1.0430   -1.4540 O   0  0  0  0  0  0  0  0  0  0  0  0
    2.3850   -0.6460   -1.0990 O   0  0  0  0  0  0  0  0  0  0  0  0
    1.5380    0.0030   -0.4340 C   0  0  0  0  0  0  0  0  0  0  0  0
    1.4200    1.3490   -0.6910 O   0  0  0  0  0  0  0  0  0  0  0  0
    0.6950   -0.6230    0.5830 C   0  0  2  0  0  0  0  0  0  0  0  0
    0.9610   -1.9880    0.6990 O   0  0  0  0  0  0  0  0  0  0  0  0
   -0.7850   -0.4850    0.3170 C   0  0  2  0  0  0  0  0  0  0  0  0
   -1.0830   -1.1600   -0.8650 O   0  0  0  0  0  0  0  0  0  0  0  0
   -1.2430    0.9030    0.2950 C   0  0  0  0  0  0  0  0  0  0  0  0
   -1.8350    1.3020   -0.7640 O   0  0  0  0  0  0  0  0  0  0  0  0
   -1.1030    1.8190    1.2930 O   0  0  0  0  0  0  0  0  0  0  0  0
  1  2  1  0
  2  3  1  0
  3  4  1  6
  3  5  1  0
  5  6  2  0
  5 12  1  0
  6  7  1  0
  7  8  2  0
  8  9  1  0
  8 10  1  0
 10 11  1  0
 10 12  2  0
 13 14  2  0
 14 15  1  0
 14 16  1  0
 16 17  1  1
 16 18  1  0
 18 19  1  1
 18 20  1  0
 20 21  2  0
 20 22  1  0
 23 24  2  0
 24 25  1  0
 24 26  1  0
 26 27  1  6
 26 28  1  0
 28 29  1  6
 28 30  1  0
 30 31  2  0
 30 32  1  0
M  CHG  1   1   1
M  END
>  <MODEL>  (30) 
       3

$$$$
../data/sim29_sdf/CHEMBL2130595.pdb
     RDKit          3D

 32 30  0  0  1  0  0  0  0  0999 V2000
   -3.5650   -0.2520    0.5540 N   0  0  0  0  0  0  0  0  0  0  0  0
   -2.1430   -0.0890    0.7790 C   0  0  0  0  0  0  0  0  0  0  0  0
   -1.4670   -0.1400   -0.5820 C   0  0  2  0  0  0  0  0  0  0  0  0
   -1.7040   -1.3480   -1.2230 O   0  0  0  0  0  0  0  0  0  0  0  0
    0.0060   -0.0700   -0.3340 C   0  0  0  0  0  0  0  0  0  0  0  0
    0.6460   -1.1810    0.1640 C   0  0  0  0  0  0  0  0  0  0  0  0
    1.9910   -1.1760    0.4110 C   0  0  0  0  0  0  0  0  0  0  0  0
    2.7150   -0.0270    0.1540 C   0  0  0  0  0  0  0  0  0  0  0  0
    4.0980   -0.0510    0.4180 O   0  0  0  0  0  0  0  0  0  0  0  0
    2.0870    1.0800   -0.3400 C   0  0  0  0  0  0  0  0  0  0  0  0
    2.8520    2.2310   -0.5910 O   0  0  0  0  0  0  0  0  0  0  0  0
    0.7410    1.0630   -0.5840 C   0  0  0  0  0  0  0  0  0  0  0  0
    2.1170    1.0190   -0.8010 O   0  0  0  0  0  0  0  0  0  0  0  0
    1.6520   -0.0710   -0.4150 C   0  0  0  0  0  0  0  0  0  0  0  0
    2.0110   -1.2350   -1.0520 O   0  0  0  0  0  0  0  0  0  0  0  0
    0.7200   -0.0950    0.7240 C   0  0  2  0  0  0  0  0  0  0  0  0
    0.3400   -1.3880    0.9720 O   0  0  0  0  0  0  0  0  0  0  0  0
   -0.4780    0.8150    0.4940 C   0  0  2  0  0  0  0  0  0  0  0  0
   -1.3030    0.8280    1.6040 O   0  0  0  0  0  0  0  0  0  0  0  0
   -1.2240    0.2610   -0.6450 C   0  0  0  0  0  0  0  0  0  0  0  0
   -0.6890    0.1470   -1.7660 O   0  0  0  0  0  0  0  0  0  0  0  0
   -2.5290   -0.1410   -0.4810 O   0  0  0  0  0  0  0  0  0  0  0  0
   -2.4130    0.3480   -1.1090 O   0  0  0  0  0  0  0  0  0  0  0  0
   -1.1410    0.3750   -1.0320 C   0  0  0  0  0  0  0  0  0  0  0  0
   -0.5940    1.5820   -1.4450 O   0  0  0  0  0  0  0  0  0  0  0  0
   -0.3950   -0.7940   -0.5450 C   0  0  2  0  0  0  0  0  0  0  0  0
   -1.3490   -1.8320   -0.3440 O   0  0  0  0  0  0  0  0  0  0  0  0
    0.2390   -0.5470    0.8090 C   0  0  1  0  0  0  0  0  0  0  0  0
    0.8280   -1.7740    1.2390 O   0  0  0  0  0  0  0  0  0  0  0  0
    1.2970    0.4860    0.7650 C   0  0  0  0  0  0  0  0  0  0  0  0
    2.5060    0.1550    1.0040 O   0  0  0  0  0  0  0  0  0  0  0  0
    1.0710    1.8160    0.4780 O   0  0  0  0  0  0  0  0  0  0  0  0
  1  2  1  0
  2  3  1  0
  3  4  1  1
  3  5  1  0
  5  6  2  0
  5 12  1  0
  6  7  1  0
  7  8  2  0
  8  9  1  0
  8 10  1  0
 10 11  1  0
 10 12  2  0
 13 14  2  0
 14 15  1  0
 14 16  1  0
 16 17  1  6
 16 18  1  0
 18 19  1  1
 18 20  1  0
 20 21  2  0
 20 22  1  0
 23 24  2  0
 24 25  1  0
 24 26  1  0
 26 27  1  1
 26 28  1  0
 28 29  1  6
 28 30  1  0
 30 31  2  0
 30 32  1  0
M  CHG  1   1   1
M  END
>  <MODEL>  (31) 
       4

$$$$
../data/sim29_sdf/CHEMBL18824.pdb
     RDKit          3D

 12 12  0  0  1  0  0  0  0  0999 V2000
   -2.6510   -1.4390   -0.4000 N   0  0  0  0  0  0  0  0  0  0  0  0
   -2.5810   -0.2290    0.3650 C   0  0  0  0  0  0  0  0  0  0  0  0
   -1.5220    0.7330   -0.0400 C   0  0  1  0  0  0  0  0  0  0  0  0
   -1.6650    1.8510    0.8300 O   0  0  0  0  0  0  0  0  0  0  0  0
   -0.1390    0.2830    0.1080 C   0  0  0  0  0  0  0  0  0  0  0  0
    0.2270   -1.0100    0.2880 C   0  0  0  0  0  0  0  0  0  0  0  0
    1.5680   -1.3650    0.4180 C   0  0  0  0  0  0  0  0  0  0  0  0
    2.5530   -0.4260    0.3680 C   0  0  0  0  0  0  0  0  0  0  0  0
    3.8810   -0.8110    0.5010 O   0  0  0  0  0  0  0  0  0  0  0  0
    2.2030    0.8840    0.1870 C   0  0  0  0  0  0  0  0  0  0  0  0
    3.1930    1.8720    0.1320 O   0  0  0  0  0  0  0  0  0  0  0  0
    0.8870    1.2300    0.0600 C   0  0  0  0  0  0  0  0  0  0  0  0
  1  2  1  0
  2  3  1  0
  3  4  1  1
  3  5  1  0
  5  6  2  0
  5 12  1  0
  6  7  1  0
  7  8  2  0
  8  9  1  0
  8 10  1  0
 10 11  1  0
 10 12  2  0
M  CHG  1   1   1
M  END
$$$$
../data/sim29_sdf/CHEMBL85811.pdb
     RDKit          3D

 16 17  0  0  0  0  0  0  0  0999 V2000
    4.8540   -1.0190    0.1160 N   0  0  0  0  0  0  0  0  0  0  0  0
    3.4610   -0.7060    0.0990 C   0  0  0  0  0  0  0  0  0  0  0  0
    2.5060   -1.6980    0.0690 C   0  0  0  0  0  0  0  0  0  0  0  0
    1.1710   -1.4170    0.0500 C   0  0  0  0  0  0  0  0  0  0  0  0
    0.7120   -0.1130    0.0590 C   0  0  0  0  0  0  0  0  0  0  0  0
   -0.7240    0.1670    0.0420 C   0  0  0  0  0  0  0  0  0  0  0  0
   -1.2330    1.2970   -0.5620 C   0  0  0  0  0  0  0  0  0  0  0  0
   -2.5970    1.5630   -0.5770 C   0  0  0  0  0  0  0  0  0  0  0  0
   -3.4560    0.6710    0.0300 C   0  0  0  0  0  0  0  0  0  0  0  0
   -4.8700    0.8930    0.0460 N   0  0  0  0  0  0  0  0  0  0  0  0
   -2.9930   -0.4730    0.6480 C   0  0  0  0  0  0  0  0  0  0  0  0
   -3.8630   -1.3790    1.2640 O   0  0  0  0  0  0  0  0  0  0  0  0
   -1.6390   -0.6960    0.6380 C   0  0  0  0  0  0  0  0  0  0  0  0
    1.6570    0.8870    0.0890 C   0  0  0  0  0  0  0  0  0  0  0  0
    3.0050    0.6000    0.1080 C   0  0  0  0  0  0  0  0  0  0  0  0
    3.9830    1.5940    0.1380 O   0  0  0  0  0  0  0  0  0  0  0  0
  1  2  1  0
  2  3  2  0
  2 15  1  0
  3  4  1  0
  4  5  2  0
  5  6  1  0
  5 14  1  0
  6  7  2  0
  6 13  1  0
  7  8  1  0
  8  9  2  0
  9 10  1  0
  9 11  1  0
 11 12  1  0
 11 13  2  0
 14 15  2  0
 15 16  1  0
M  END
>  <MODEL>  (33) 
       1

$$$$
../data/sim29_sdf/CHEMBL85811.pdb
     RDKit          3D

 16 17  0  0  0  0  0  0  0  0999 V2000
    4.8760    0.1230    0.2810 N   0  0  0  0  0  0  0  0  0  0  0  0
    3.4600    0.1160    0.2220 C   0  0  0  0  0  0  0  0  0  0  0  0
    2.7950    1.3210    0.2310 C   0  0  0  0  0  0  0  0  0  0  0  0
    1.4190    1.3190    0.1740 C   0  0  0  0  0  0  0  0  0  0  0  0
    0.7040    0.1430    0.1100 C   0  0  0  0  0  0  0  0  0  0  0  0
   -0.7710    0.1690    0.0500 C   0  0  0  0  0  0  0  0  0  0  0  0
   -1.4130    1.2140   -0.5800 C   0  0  0  0  0  0  0  0  0  0  0  0
   -2.7880    1.2970   -0.6720 C   0  0  0  0  0  0  0  0  0  0  0  0
   -3.5760    0.3080   -0.1190 C   0  0  0  0  0  0  0  0  0  0  0  0
   -5.0040    0.3640   -0.1960 N   0  0  0  0  0  0  0  0  0  0  0  0
   -2.9410   -0.7370    0.5120 C   0  0  0  0  0  0  0  0  0  0  0  0
   -3.7570   -1.7250    1.0630 O   0  0  0  0  0  0  0  0  0  0  0  0
   -1.5530   -0.8210    0.6040 C   0  0  0  0  0  0  0  0  0  0  0  0
    1.4030   -1.0320    0.1040 C   0  0  0  0  0  0  0  0  0  0  0  0
    2.7810   -1.0770    0.1590 C   0  0  0  0  0  0  0  0  0  0  0  0
    3.4580   -2.3130    0.1500 O   0  0  0  0  0  0  0  0  0  0  0  0
  1  2  1  0
  2  3  2  0
  2 15  1  0
  3  4  1  0
  4  5  2  0
  5  6  1  0
  5 14  1  0
  6  7  2  0
  6 13  1  0
  7  8  1  0
  8  9  2  0
  9 10  1  0
  9 11  1  0
 11 12  1  0
 11 13  2  0
 14 15  2  0
 15 16  1  0
M  END
>  <MODEL>  (34) 
       2

$$$$
../data/sim29_sdf/CHEMBL2074780.pdb
     RDKit          3D

 13 13  0  0  1  0  0  0  0  0999 V2000
    2.9910    0.4720    1.4140 O   0  0  0  0  0  0  0  0  0  0  0  0
    2.8560   -0.0660    0.2860 C   0  0  0  0  0  0  0  0  0  0  0  0
    3.8750    0.1990   -0.6210 O   0  0  0  0  0  0  0  0  0  0  0  0
    1.6940   -0.8960    0.0100 C   0  0  2  0  0  0  0  0  0  0  0  0
    1.7540   -1.4440   -1.2950 O   0  0  0  0  0  0  0  0  0  0  0  0
    0.3750   -0.2610    0.2120 C   0  0  0  0  0  0  0  0  0  0  0  0
    0.1370    0.9620    0.7510 C   0  0  0  0  0  0  0  0  0  0  0  0
   -1.1310    1.4750    0.9040 C   0  0  0  0  0  0  0  0  0  0  0  0
   -2.2250    0.7180    0.4930 C   0  0  0  0  0  0  0  0  0  0  0  0
   -3.4700    1.2690    0.6650 O   0  0  0  0  0  0  0  0  0  0  0  0
   -2.0220   -0.5310   -0.0590 C   0  0  0  0  0  0  0  0  0  0  0  0
   -3.0830   -1.3020   -0.4740 O   0  0  0  0  0  0  0  0  0  0  0  0
   -0.7230   -1.0000   -0.1900 C   0  0  0  0  0  0  0  0  0  0  0  0
  1  2  2  0
  2  3  1  0
  2  4  1  0
  4  5  1  6
  4  6  1  0
  6  7  2  0
  6 13  1  0
  7  8  1  0
  8  9  2  0
  9 10  1  0
  9 11  1  0
 11 12  1  0
 11 13  2  0
M  END
>  <MODEL>  (35) 
       1

$$$$
../data/sim29_sdf/CHEMBL2074780.pdb
     RDKit          3D

 13 13  0  0  1  0  0  0  0  0999 V2000
   -2.3100    2.0890   -0.9780 O   0  0  0  0  0  0  0  0  0  0  0  0
   -2.5590    1.0050   -0.3890 C   0  0  0  0  0  0  0  0  0  0  0  0
   -3.5610    1.0600    0.5680 O   0  0  0  0  0  0  0  0  0  0  0  0
   -1.8800   -0.2570   -0.6450 C   0  0  2  0  0  0  0  0  0  0  0  0
   -2.4130   -1.2500    0.1770 O   0  0  0  0  0  0  0  0  0  0  0  0
   -0.4350   -0.2560   -0.4300 C   0  0  0  0  0  0  0  0  0  0  0  0
    0.2090   -1.4820   -0.4030 C   0  0  0  0  0  0  0  0  0  0  0  0
    1.5800   -1.5610   -0.2020 C   0  0  0  0  0  0  0  0  0  0  0  0
    2.3490   -0.4290   -0.0230 C   0  0  0  0  0  0  0  0  0  0  0  0
    3.7140   -0.5950    0.1710 O   0  0  0  0  0  0  0  0  0  0  0  0
    1.7220    0.7820   -0.0480 C   0  0  0  0  0  0  0  0  0  0  0  0
    2.4580    1.9450    0.1280 O   0  0  0  0  0  0  0  0  0  0  0  0
    0.3560    0.8500   -0.2490 C   0  0  0  0  0  0  0  0  0  0  0  0
  1  2  2  0
  2  3  1  0
  2  4  1  0
  4  5  1  1
  4  6  1  0
  6  7  2  0
  6 13  1  0
  7  8  1  0
  8  9  2  0
  9 10  1  0
  9 11  1  0
 11 12  1  0
 11 13  2  0
M  END
>  <MODEL>  (36) 
       2

$$$$
../data/sim29_sdf/CHEMBL164989.pdb
     RDKit          3D

 11 11  0  0  0  0  0  0  0  0999 V2000
    2.7490   -0.5150    0.2140 N   0  0  0  0  0  0  0  0  0  0  0  0
    1.3430   -0.3540    0.1020 C   0  0  0  0  0  0  0  0  0  0  0  0
    0.4800   -1.4260   -0.0040 C   0  0  0  0  0  0  0  0  0  0  0  0
   -0.8890   -1.2890   -0.1130 C   0  0  0  0  0  0  0  0  0  0  0  0
   -1.4760   -0.0400   -0.1220 C   0  0  0  0  0  0  0  0  0  0  0  0
   -2.8870    0.1290   -0.2330 N   0  0  0  0  0  0  0  0  0  0  0  0
   -3.4460    1.2380   -0.2440 O   0  0  0  0  0  0  0  0  0  0  0  0
   -3.6980   -0.9720   -0.3360 O   0  0  0  0  0  0  0  0  0  0  0  0
   -0.6200    1.0380   -0.0160 C   0  0  0  0  0  0  0  0  0  0  0  0
    0.7480    0.9000    0.0930 C   0  0  0  0  0  0  0  0  0  0  0  0
    1.5810    2.0060    0.1980 O   0  0  0  0  0  0  0  0  0  0  0  0
  1  2  1  0
  2  3  2  0
  2 10  1  0
  3  4  1  0
  4  5  2  0
  5  6  1  0
  5  9  1  0
  6  7  2  0
  6  8  1  0
  9 10  2  0
 10 11  1  0
M  CHG  2   6   1   8  -1
M  END
$$$$
../data/sim29_sdf/CHEMBL2311152.pdb
     RDKit          3D

 12 12  0  0  1  0  0  0  0  0999 V2000
   -1.6260    0.6430   -0.3560 C   0  0  1  0  0  0  0  0  0  0  0  0
   -2.1880   -0.1130   -1.3930 O   0  0  0  0  0  0  0  0  0  0  0  0
   -2.3800    0.3070    0.9150 C   0  0  0  0  0  0  0  0  0  0  0  0
   -2.2470   -1.0900    1.1840 N   0  0  0  0  0  0  0  0  0  0  0  0
   -0.2100    0.2880   -0.2240 C   0  0  0  0  0  0  0  0  0  0  0  0
    0.1610   -1.0360   -0.2440 C   0  0  0  0  0  0  0  0  0  0  0  0
    1.5050   -1.3960   -0.1190 C   0  0  0  0  0  0  0  0  0  0  0  0
    2.4630   -0.4280    0.0250 C   0  0  0  0  0  0  0  0  0  0  0  0
    3.8140   -0.7070    0.1550 O   0  0  0  0  0  0  0  0  0  0  0  0
    2.1010    0.9040    0.0480 C   0  0  0  0  0  0  0  0  0  0  0  0
    3.0790    1.8980    0.1950 O   0  0  0  0  0  0  0  0  0  0  0  0
    0.7550    1.2580   -0.0780 C   0  0  0  0  0  0  0  0  0  0  0  0
  1  2  1  6
  1  3  1  0
  1  5  1  0
  3  4  1  0
  5  6  2  0
  5 12  1  0
  6  7  1  0
  7  8  2  0
  8  9  1  0
  8 10  1  0
 10 11  1  0
 10 12  2  0
M  CHG  1   4   1
M  END
>  <MODEL>  (38) 
       1

$$$$
../data/sim29_sdf/CHEMBL2311152.pdb
     RDKit          3D

 12 12  0  0  1  0  0  0  0  0999 V2000
   -1.5050    0.3410   -0.5310 C   0  0  1  0  0  0  0  0  0  0  0  0
   -1.6390   -0.0430   -1.8640 O   0  0  0  0  0  0  0  0  0  0  0  0
   -2.4180   -0.5580    0.2740 C   0  0  0  0  0  0  0  0  0  0  0  0
   -3.7590   -0.3220   -0.2420 N   0  0  0  0  0  0  0  0  0  0  0  0
   -0.1150    0.3110   -0.0920 C   0  0  0  0  0  0  0  0  0  0  0  0
    0.3680    1.3700    0.6430 C   0  0  0  0  0  0  0  0  0  0  0  0
    1.6680    1.3800    1.0730 C   0  0  0  0  0  0  0  0  0  0  0  0
    2.5080    0.3110    0.7660 C   0  0  0  0  0  0  0  0  0  0  0  0
    3.8070    0.3960    1.2370 O   0  0  0  0  0  0  0  0  0  0  0  0
    2.0500   -0.7620    0.0320 C   0  0  0  0  0  0  0  0  0  0  0  0
    2.8950   -1.8290   -0.2740 O   0  0  0  0  0  0  0  0  0  0  0  0
    0.7400   -0.7250   -0.3770 C   0  0  0  0  0  0  0  0  0  0  0  0
  1  2  1  6
  1  3  1  0
  1  5  1  0
  3  4  1  0
  5  6  2  0
  5 12  1  0
  6  7  1  0
  7  8  2  0
  8  9  1  0
  8 10  1  0
 10 11  1  0
 10 12  2  0
M  CHG  1   4   1
M  END
>  <MODEL>  (39) 
       2

$$$$
../data/sim29_sdf/CHEMBL1160982.pdb
     RDKit          3D

 13 13  0  0  1  0  0  0  0  0999 V2000
   -2.1770    1.3130    0.4310 C   0  0  0  0  0  0  0  0  0  0  0  0
   -2.0990   -0.1770    0.3300 C   0  0  1  0  0  0  0  0  0  0  0  0
   -3.4200   -0.6650   -0.0250 N   0  0  0  0  0  0  0  0  0  0  0  0
   -1.1150   -0.6590   -0.6960 C   0  0  1  0  0  0  0  0  0  0  0  0
   -1.4190   -0.2070   -1.9760 O   0  0  0  0  0  0  0  0  0  0  0  0
    0.2920   -0.3810   -0.3130 C   0  0  0  0  0  0  0  0  0  0  0  0
    1.2950   -0.6440   -1.2230 C   0  0  0  0  0  0  0  0  0  0  0  0
    2.6300   -0.4070   -0.9280 C   0  0  0  0  0  0  0  0  0  0  0  0
    2.9790    0.1060    0.3070 C   0  0  0  0  0  0  0  0  0  0  0  0
    4.3050    0.3660    0.6650 O   0  0  0  0  0  0  0  0  0  0  0  0
    1.9840    0.3690    1.2160 C   0  0  0  0  0  0  0  0  0  0  0  0
    2.3540    0.8900    2.4680 O   0  0  0  0  0  0  0  0  0  0  0  0
    0.6670    0.1270    0.9040 C   0  0  0  0  0  0  0  0  0  0  0  0
  2  1  1  6
  2  3  1  0
  2  4  1  0
  4  5  1  6
  4  6  1  0
  6  7  2  0
  6 13  1  0
  7  8  1  0
  8  9  2  0
  9 10  1  0
  9 11  1  0
 11 12  1  0
 11 13  2  0
M  CHG  1   3   1
M  END
>  <MODEL>  (40) 
       1

$$$$
../data/sim29_sdf/CHEMBL1160982.pdb
     RDKit          3D

 13 13  0  0  1  0  0  0  0  0999 V2000
   -3.4040   -0.4200    0.5180 C   0  0  0  0  0  0  0  0  0  0  0  0
   -2.1200   -0.3630   -0.3260 C   0  0  1  0  0  0  0  0  0  0  0  0
   -2.3140    0.7360   -1.2480 N   0  0  0  0  0  0  0  0  0  0  0  0
   -0.9970   -0.1810    0.6250 C   0  0  1  0  0  0  0  0  0  0  0  0
   -0.9380   -1.2990    1.4620 O   0  0  0  0  0  0  0  0  0  0  0  0
    0.3310    0.0360    0.0520 C   0  0  0  0  0  0  0  0  0  0  0  0
    0.6600    0.2750   -1.2410 C   0  0  0  0  0  0  0  0  0  0  0  0
    1.9810    0.4650   -1.6180 C   0  0  0  0  0  0  0  0  0  0  0  0
    3.0210    0.4200   -0.7040 C   0  0  0  0  0  0  0  0  0  0  0  0
    4.3420    0.6100   -1.0820 O   0  0  0  0  0  0  0  0  0  0  0  0
    2.6860    0.1790    0.6010 C   0  0  0  0  0  0  0  0  0  0  0  0
    3.6980    0.1230    1.5680 O   0  0  0  0  0  0  0  0  0  0  0  0
    1.3860   -0.0080    0.9720 C   0  0  0  0  0  0  0  0  0  0  0  0
  2  1  1  1
  2  3  1  0
  2  4  1  0
  4  5  1  6
  4  6  1  0
  6  7  2  0
  6 13  1  0
  7  8  1  0
  8  9  2  0
  9 10  1  0
  9 11  1  0
 11 12  1  0
 11 13  2  0
M  CHG  1   3   1
M  END
>  <MODEL>  (41) 
       2

$$$$
../data/sim29_sdf/CHEMBL1350643.pdb
     RDKit          3D

 17 18  0  0  0  0  0  0  0  0999 V2000
    4.7030    0.7060   -1.3700 N   0  0  0  0  0  0  0  0  0  0  0  0
    3.5460    0.3710   -0.6110 C   0  0  0  0  0  0  0  0  0  0  0  0
    3.0580    1.1840    0.3950 C   0  0  0  0  0  0  0  0  0  0  0  0
    1.9350    0.8200    1.1050 C   0  0  0  0  0  0  0  0  0  0  0  0
    1.2910   -0.3550    0.8170 C   0  0  0  0  0  0  0  0  0  0  0  0
    0.0900   -0.7710    1.5560 C   0  0  0  0  0  0  0  0  0  0  0  0
   -1.1720   -0.2780    0.9320 C   0  0  0  0  0  0  0  0  0  0  0  0
   -1.7230    0.9390    1.2800 C   0  0  0  0  0  0  0  0  0  0  0  0
   -2.8900    1.3870    0.6980 C   0  0  0  0  0  0  0  0  0  0  0  0
   -3.5730    0.6570   -0.2560 C   0  0  0  0  0  0  0  0  0  0  0  0
   -4.7760    1.1330   -0.8470 N   0  0  0  0  0  0  0  0  0  0  0  0
   -3.0210   -0.5650   -0.6050 C   0  0  0  0  0  0  0  0  0  0  0  0
   -3.6950   -1.3130   -1.5640 O   0  0  0  0  0  0  0  0  0  0  0  0
   -1.8540   -1.0060   -0.0200 C   0  0  0  0  0  0  0  0  0  0  0  0
    1.7900   -1.1480   -0.1850 C   0  0  0  0  0  0  0  0  0  0  0  0
    2.9060   -0.8140   -0.9090 C   0  0  0  0  0  0  0  0  0  0  0  0
    3.3630   -1.6520   -1.9050 O   0  0  0  0  0  0  0  0  0  0  0  0
  1  2  1  0
  2  3  2  0
  2 16  1  0
  3  4  1  0
  4  5  2  0
  5  6  1  0
  5 15  1  0
  6  7  1  0
  7  8  2  0
  7 14  1  0
  8  9  1  0
  9 10  2  0
 10 11  1  0
 10 12  1  0
 12 13  1  0
 12 14  2  0
 15 16  2  0
 16 17  1  0
M  END
>  <MODEL>  (42) 
       1

$$$$
../data/sim29_sdf/CHEMBL1350643.pdb
     RDKit          3D

 17 18  0  0  0  0  0  0  0  0999 V2000
    4.7600    0.7940   -1.2830 N   0  0  0  0  0  0  0  0  0  0  0  0
    3.5880    0.3670   -0.6170 C   0  0  0  0  0  0  0  0  0  0  0  0
    3.0110    1.1730    0.3680 C   0  0  0  0  0  0  0  0  0  0  0  0
    1.8640    0.7270    1.0020 C   0  0  0  0  0  0  0  0  0  0  0  0
    1.2790   -0.4760    0.6920 C   0  0  0  0  0  0  0  0  0  0  0  0
    0.0640   -0.9370    1.3700 C   0  0  0  0  0  0  0  0  0  0  0  0
   -1.1850   -0.5050    0.6920 C   0  0  0  0  0  0  0  0  0  0  0  0
   -1.7300   -1.3240   -0.2760 C   0  0  0  0  0  0  0  0  0  0  0  0
   -2.8890   -0.9390   -0.9160 C   0  0  0  0  0  0  0  0  0  0  0  0
   -3.4870    0.2610   -0.5780 C   0  0  0  0  0  0  0  0  0  0  0  0
   -4.6930    0.6810   -1.2310 N   0  0  0  0  0  0  0  0  0  0  0  0
   -2.9640    1.0990    0.3850 C   0  0  0  0  0  0  0  0  0  0  0  0
   -3.5780    2.3180    0.7230 O   0  0  0  0  0  0  0  0  0  0  0  0
   -1.8040    0.6870    1.0080 C   0  0  0  0  0  0  0  0  0  0  0  0
    1.8580   -1.2590   -0.2810 C   0  0  0  0  0  0  0  0  0  0  0  0
    3.0190   -0.8460   -0.9470 C   0  0  0  0  0  0  0  0  0  0  0  0
    3.6150   -1.6240   -1.9300 O   0  0  0  0  0  0  0  0  0  0  0  0
  1  2  1  0
  2  3  2  0
  2 16  1  0
  3  4  1  0
  4  5  2  0
  5  6  1  0
  5 15  1  0
  6  7  1  0
  7  8  2  0
  7 14  1  0
  8  9  1  0
  9 10  2  0
 10 11  1  0
 10 12  1  0
 12 13  1  0
 12 14  2  0
 15 16  2  0
 16 17  1  0
M  END
>  <MODEL>  (43) 
       2

$$$$
../data/sim29_sdf/CHEMBL1612659.pdb
     RDKit          3D

 14 13  0  0  1  0  0  0  0  0999 V2000
   -1.9540    0.8930    0.4910 C   0  0  0  0  0  0  0  0  0  0  0  0
   -2.0190   -0.6000    0.5120 C   0  0  1  0  0  0  0  0  0  0  0  0
   -3.3310   -1.1020    0.2750 N   0  0  0  0  0  0  0  0  0  0  0  0
   -0.9920   -1.1470   -0.4560 C   0  0  2  0  0  0  0  0  0  0  0  0
   -0.8990   -2.5440   -0.3840 O   0  0  0  0  0  0  0  0  0  0  0  0
    0.3240   -0.4930   -0.2440 C   0  0  0  0  0  0  0  0  0  0  0  0
    1.1980   -0.8680    0.7630 C   0  0  0  0  0  0  0  0  0  0  0  0
    2.4040   -0.2130    0.8990 C   0  0  0  0  0  0  0  0  0  0  0  0
    2.7990    0.8200    0.0690 C   0  0  0  0  0  0  0  0  0  0  0  0
    4.0330    1.4530    0.2480 O   0  0  0  0  0  0  0  0  0  0  0  0
    1.9270    1.1920   -0.9340 C   0  0  0  0  0  0  0  0  0  0  0  0
    2.2520    2.2130   -1.8000 O   0  0  0  0  0  0  0  0  0  0  0  0
    0.7230    0.5340   -1.0650 C   0  0  0  0  0  0  0  0  0  0  0  0
    0.6920    0.0000    0.0000 Cl  0  0  0  0  0  0  0  0  0  0  0  0
  2  1  1  6
  2  3  1  0
  2  4  1  0
  4  5  1  1
  4  6  1  0
  6  7  2  0
  6 13  1  0
  7  8  1  0
  8  9  2  0
  9 10  1  0
  9 11  1  0
 11 12  1  0
 11 13  2  0
M  CHG  1   3   1
M  END
>  <MODEL>  (44) 
       1

$$$$
../data/sim29_sdf/CHEMBL1612659.pdb
     RDKit          3D

 14 13  0  0  1  0  0  0  0  0999 V2000
   -3.3340   -0.7180   -0.1360 C   0  0  0  0  0  0  0  0  0  0  0  0
   -1.9690   -0.3240    0.3970 C   0  0  2  0  0  0  0  0  0  0  0  0
   -2.0890    1.0230    0.9140 N   0  0  0  0  0  0  0  0  0  0  0  0
   -1.0030   -0.4260   -0.7410 C   0  0  2  0  0  0  0  0  0  0  0  0
   -0.9750   -1.7630   -1.1500 O   0  0  0  0  0  0  0  0  0  0  0  0
    0.3580   -0.0120   -0.4280 C   0  0  0  0  0  0  0  0  0  0  0  0
    0.8810    1.1950   -0.8550 C   0  0  0  0  0  0  0  0  0  0  0  0
    2.1600    1.5310   -0.5330 C   0  0  0  0  0  0  0  0  0  0  0  0
    2.9820    0.7200    0.2120 C   0  0  0  0  0  0  0  0  0  0  0  0
    4.2850    1.0510    0.5470 O   0  0  0  0  0  0  0  0  0  0  0  0
    2.4670   -0.4840    0.6420 C   0  0  0  0  0  0  0  0  0  0  0  0
    3.2270   -1.3640    1.3980 O   0  0  0  0  0  0  0  0  0  0  0  0
    1.1640   -0.8420    0.3210 C   0  0  0  0  0  0  0  0  0  0  0  0
    0.6900    0.0000    0.0000 Cl  0  0  0  0  0  0  0  0  0  0  0  0
  2  1  1  6
  2  3  1  0
  2  4  1  0
  4  5  1  1
  4  6  1  0
  6  7  2  0
  6 13  1  0
  7  8  1  0
  8  9  2  0
  9 10  1  0
  9 11  1  0
 11 12  1  0
 11 13  2  0
M  CHG  1   3   1
M  END
>  <MODEL>  (45) 
       2

$$$$
../data/sim29_sdf/CHEMBL1462.pdb
     RDKit          3D

 11 11  0  0  0  0  0  0  0  0999 V2000
   -3.0080    0.5360   -0.2300 N   0  0  0  0  0  0  0  0  0  0  0  0
   -1.6000    0.3310   -0.1180 C   0  0  0  0  0  0  0  0  0  0  0  0
   -0.7500    1.3850    0.1430 C   0  0  0  0  0  0  0  0  0  0  0  0
    0.6220    1.2180    0.2560 C   0  0  0  0  0  0  0  0  0  0  0  0
    1.1920   -0.0270    0.1100 C   0  0  0  0  0  0  0  0  0  0  0  0
    2.6410   -0.2120    0.2280 C   0  0  0  0  0  0  0  0  0  0  0  0
    3.1460   -1.3660    0.0900 O   0  0  0  0  0  0  0  0  0  0  0  0
    3.5090    0.8160    0.4870 O   0  0  0  0  0  0  0  0  0  0  0  0
    0.3440   -1.0800   -0.1510 C   0  0  0  0  0  0  0  0  0  0  0  0
   -1.0270   -0.9150   -0.2650 C   0  0  0  0  0  0  0  0  0  0  0  0
   -1.8740   -1.9840   -0.5290 O   0  0  0  0  0  0  0  0  0  0  0  0
  1  2  1  0
  2  3  2  0
  2 10  1  0
  3  4  1  0
  4  5  2  0
  5  6  1  0
  5  9  1  0
  6  7  2  0
  6  8  1  0
  9 10  2  0
 10 11  1  0
M  END
$$$$
../data/sim29_sdf/CHEMBL3273169.pdb
     RDKit          3D

 13 12  0  0  1  0  0  0  0  0999 V2000
    0.7690    0.0000    0.0000 Br  0  0  0  0  0  0  0  0  0  0  0  0
   -3.7120    0.5380   -0.0290 N   0  0  0  0  0  0  0  0  0  0  0  0
   -2.3120    0.6960   -0.3610 C   0  0  0  0  0  0  0  0  0  0  0  0
   -1.5080   -0.4210    0.2600 C   0  0  2  0  0  0  0  0  0  0  0  0
   -1.7080   -0.3280    1.6560 O   0  0  0  0  0  0  0  0  0  0  0  0
   -0.0710   -0.2680    0.0260 C   0  0  0  0  0  0  0  0  0  0  0  0
    0.3930    0.5510   -0.9810 C   0  0  0  0  0  0  0  0  0  0  0  0
    1.7500    0.6870   -1.1920 C   0  0  0  0  0  0  0  0  0  0  0  0
    2.6250   -0.0180   -0.3670 C   0  0  0  0  0  0  0  0  0  0  0  0
    3.9980    0.1090   -0.5680 O   0  0  0  0  0  0  0  0  0  0  0  0
    2.1920   -0.8350    0.6350 C   0  0  0  0  0  0  0  0  0  0  0  0
    3.0650   -1.5350    1.4540 O   0  0  0  0  0  0  0  0  0  0  0  0
    0.8320   -0.9620    0.8350 C   0  0  0  0  0  0  0  0  0  0  0  0
  2  3  1  0
  3  4  1  0
  4  5  1  1
  4  6  1  0
  6  7  2  0
  6 13  1  0
  7  8  1  0
  8  9  2  0
  9 10  1  0
  9 11  1  0
 11 12  1  0
 11 13  2  0
M  CHG  1   2   1
M  END
$$$$
../data/sim29_sdf/CHEMBL1437.pdb
     RDKit          3D

 12 12  0  0  1  0  0  0  0  0999 V2000
   -3.6200    0.2810    0.2930 N   0  0  0  0  0  0  0  0  0  0  0  0
   -2.2220    0.0340    0.4720 C   0  0  0  0  0  0  0  0  0  0  0  0
   -1.3840    0.6260   -0.6560 C   0  0  2  0  0  0  0  0  0  0  0  0
   -1.7470    0.0800   -1.8860 O   0  0  0  0  0  0  0  0  0  0  0  0
    0.0270    0.2430   -0.3770 C   0  0  0  0  0  0  0  0  0  0  0  0
    0.4160   -1.0810   -0.6050 C   0  0  0  0  0  0  0  0  0  0  0  0
    1.7090   -1.5020   -0.3670 C   0  0  0  0  0  0  0  0  0  0  0  0
    2.6070   -0.5780    0.1030 C   0  0  0  0  0  0  0  0  0  0  0  0
    3.9180   -0.9760    0.3520 O   0  0  0  0  0  0  0  0  0  0  0  0
    2.2520    0.7300    0.3370 C   0  0  0  0  0  0  0  0  0  0  0  0
    3.2050    1.6490    0.8200 O   0  0  0  0  0  0  0  0  0  0  0  0
    0.9590    1.1400    0.0960 C   0  0  0  0  0  0  0  0  0  0  0  0
  1  2  1  0
  2  3  1  0
  3  4  1  6
  3  5  1  0
  5  6  2  0
  5 12  1  0
  6  7  1  0
  7  8  2  0
  8  9  1  0
  8 10  1  0
 10 11  1  0
 10 12  2  0
M  CHG  1   1   1
M  END
>  <MODEL>  (48) 
       1

$$$$
../data/sim29_sdf/CHEMBL1437.pdb
     RDKit          3D

 12 12  0  0  1  0  0  0  0  0999 V2000
   -2.3520    1.3330    0.5170 N   0  0  0  0  0  0  0  0  0  0  0  0
   -2.4650   -0.0900    0.4390 C   0  0  0  0  0  0  0  0  0  0  0  0
   -1.5410   -0.5860   -0.6450 C   0  0  2  0  0  0  0  0  0  0  0  0
   -1.6660   -1.9780   -0.7040 O   0  0  0  0  0  0  0  0  0  0  0  0
   -0.1230   -0.2660   -0.3760 C   0  0  0  0  0  0  0  0  0  0  0  0
    0.4700    0.7440   -1.1220 C   0  0  0  0  0  0  0  0  0  0  0  0
    1.7840    1.1200   -0.9500 C   0  0  0  0  0  0  0  0  0  0  0  0
    2.5240    0.4570    0.0050 C   0  0  0  0  0  0  0  0  0  0  0  0
    3.8630    0.7650    0.2530 O   0  0  0  0  0  0  0  0  0  0  0  0
    1.9530   -0.5620    0.7680 C   0  0  0  0  0  0  0  0  0  0  0  0
    2.7290   -1.2110    1.7240 O   0  0  0  0  0  0  0  0  0  0  0  0
    0.6360   -0.9070    0.5650 C   0  0  0  0  0  0  0  0  0  0  0  0
  1  2  1  0
  2  3  1  0
  3  4  1  1
  3  5  1  0
  5  6  2  0
  5 12  1  0
  6  7  1  0
  7  8  2  0
  8  9  1  0
  8 10  1  0
 10 11  1  0
 10 12  2  0
M  CHG  1   1   1
M  END
>  <MODEL>  (49) 
       2

$$$$
../data/sim29_sdf/CHEMBL270197.pdb
     RDKit          3D

  9  9  0  0  0  0  0  0  0  0999 V2000
   -2.5310   -0.3840   -0.0690 N   0  0  0  0  0  0  0  0  0  0  0  0
   -1.1160   -0.3310   -0.0120 C   0  0  0  0  0  0  0  0  0  0  0  0
   -0.3310   -1.4540    0.1510 C   0  0  0  0  0  0  0  0  0  0  0  0
    1.0470   -1.3830    0.2040 C   0  0  0  0  0  0  0  0  0  0  0  0
    1.6990   -0.1850    0.0970 C   0  0  0  0  0  0  0  0  0  0  0  0
    3.0930   -0.1540    0.1560 O   0  0  0  0  0  0  0  0  0  0  0  0
    0.9410    0.9540   -0.0660 C   0  0  0  0  0  0  0  0  0  0  0  0
   -0.4350    0.8810   -0.1190 C   0  0  0  0  0  0  0  0  0  0  0  0
   -1.2420    2.0140   -0.2830 O   0  0  0  0  0  0  0  0  0  0  0  0
  1  2  1  0
  2  3  2  0
  2  8  1  0
  3  4  1  0
  4  5  2  0
  5  6  1  0
  5  7  1  0
  7  8  2  0
  8  9  1  0
M  END
$$$$
../data/sim29_sdf/CHEMBL3248963.pdb
     RDKit          3D

 13 12  0  0  1  0  0  0  0  0999 V2000
    0.6920    0.0000    0.0000 Cl  0  0  0  0  0  0  0  0  0  0  0  0
   -3.6460    0.3970    0.1710 N   0  0  0  0  0  0  0  0  0  0  0  0
   -2.2830    0.1310    0.4960 C   0  0  0  0  0  0  0  0  0  0  0  0
   -1.3930    0.1110   -0.7240 C   0  0  2  0  0  0  0  0  0  0  0  0
   -1.8200   -0.8680   -1.5900 O   0  0  0  0  0  0  0  0  0  0  0  0
    0.0210   -0.0400   -0.3060 C   0  0  0  0  0  0  0  0  0  0  0  0
    0.5700   -1.2400    0.0780 C   0  0  0  0  0  0  0  0  0  0  0  0
    1.8760   -1.3660    0.4600 C   0  0  0  0  0  0  0  0  0  0  0  0
    2.7060   -0.2740    0.4750 C   0  0  0  0  0  0  0  0  0  0  0  0
    4.0250   -0.4150    0.8640 O   0  0  0  0  0  0  0  0  0  0  0  0
    2.1790    0.9520    0.0920 C   0  0  0  0  0  0  0  0  0  0  0  0
    2.9920    2.0520    0.1000 O   0  0  0  0  0  0  0  0  0  0  0  0
    0.8730    1.0600   -0.2870 C   0  0  0  0  0  0  0  0  0  0  0  0
  2  3  1  0
  3  4  1  0
  4  5  1  6
  4  6  1  0
  6  7  2  0
  6 13  1  0
  7  8  1  0
  8  9  2  0
  9 10  1  0
  9 11  1  0
 11 12  1  0
 11 13  2  0
M  CHG  1   2   1
M  END
$$$$
../data/sim29_sdf/CHEMBL14927.pdb
     RDKit          3D

 22 23  0  0  1  0  0  0  0  0999 V2000
    1.4590   -2.8070   -1.7000 C   0  0  0  0  0  0  0  0  0  0  0  0
    0.2490   -2.2590   -0.9760 C   0  0  0  0  0  0  0  0  0  0  0  0
    0.6400   -1.4540    0.2170 C   0  0  1  0  0  0  0  0  0  0  0  0
    1.4730   -0.3310   -0.2070 C   0  0  0  0  0  0  0  0  0  0  0  0
    1.1570    0.4610   -1.2780 C   0  0  0  0  0  0  0  0  0  0  0  0
    1.9860    1.5110   -1.6230 C   0  0  0  0  0  0  0  0  0  0  0  0
    3.1350    1.7920   -0.9150 C   0  0  0  0  0  0  0  0  0  0  0  0
    3.9740    2.8500   -1.2590 O   0  0  0  0  0  0  0  0  0  0  0  0
    3.4690    1.0080    0.1620 C   0  0  0  0  0  0  0  0  0  0  0  0
    4.6390    1.2330    0.9430 N   0  0  0  0  0  0  0  0  0  0  0  0
    2.6220   -0.0350    0.4840 C   0  0  0  0  0  0  0  0  0  0  0  0
   -0.5480   -1.0850    1.0840 C   0  0  1  0  0  0  0  0  0  0  0  0
   -0.0840   -0.2920    2.2530 C   0  0  0  0  0  0  0  0  0  0  0  0
   -1.2180    0.1170    3.1700 C   0  0  0  0  0  0  0  0  0  0  0  0
   -1.6880   -0.5280    0.3700 C   0  0  0  0  0  0  0  0  0  0  0  0
   -2.7530   -1.3040   -0.0450 C   0  0  0  0  0  0  0  0  0  0  0  0
   -3.8410   -0.7610   -0.7100 C   0  0  0  0  0  0  0  0  0  0  0  0
   -3.8790    0.5870   -0.9730 C   0  0  0  0  0  0  0  0  0  0  0  0
   -4.9400    1.1830   -1.6330 O   0  0  0  0  0  0  0  0  0  0  0  0
   -2.8200    1.3940   -0.5660 C   0  0  0  0  0  0  0  0  0  0  0  0
   -2.8670    2.7800   -0.8400 N   0  0  0  0  0  0  0  0  0  0  0  0
   -1.7480    0.8140    0.0980 C   0  0  0  0  0  0  0  0  0  0  0  0
  1  2  1  0
  3  2  1  6
  3  4  1  0
  3 12  1  0
  4  5  2  0
  4 11  1  0
  5  6  1  0
  6  7  2  0
  7  8  1  0
  7  9  1  0
  9 10  1  0
  9 11  2  0
 12 13  1  1
 12 15  1  0
 13 14  1  0
 15 16  2  0
 15 22  1  0
 16 17  1  0
 17 18  2  0
 18 19  1  0
 18 20  1  0
 20 21  1  0
 20 22  2  0
M  END
>  <MODEL>  (52) 
       1

$$$$
../data/sim29_sdf/CHEMBL14927.pdb
     RDKit          3D

 22 23  0  0  1  0  0  0  0  0999 V2000
   -1.7410   -3.1620   -0.5040 C   0  0  0  0  0  0  0  0  0  0  0  0
   -1.2870   -2.1880   -1.5500 C   0  0  0  0  0  0  0  0  0  0  0  0
   -0.5100   -1.0250   -1.0830 C   0  0  1  0  0  0  0  0  0  0  0  0
   -1.2800   -0.1660   -0.1180 C   0  0  0  0  0  0  0  0  0  0  0  0
   -1.5490   -0.5830    1.1680 C   0  0  0  0  0  0  0  0  0  0  0  0
   -2.2570    0.2020    2.0520 C   0  0  0  0  0  0  0  0  0  0  0  0
   -2.7330    1.4450    1.6980 C   0  0  0  0  0  0  0  0  0  0  0  0
   -3.4500    2.2540    2.5760 O   0  0  0  0  0  0  0  0  0  0  0  0
   -2.4660    1.8650    0.4140 C   0  0  0  0  0  0  0  0  0  0  0  0
   -2.9350    3.1320    0.0070 N   0  0  0  0  0  0  0  0  0  0  0  0
   -1.7590    1.0810   -0.4710 C   0  0  0  0  0  0  0  0  0  0  0  0
    0.8650   -1.2310   -0.5730 C   0  0  1  0  0  0  0  0  0  0  0  0
    1.8900   -1.8120   -1.4570 C   0  0  0  0  0  0  0  0  0  0  0  0
    1.6500   -3.1830   -1.9890 C   0  0  0  0  0  0  0  0  0  0  0  0
    1.4210    0.0930   -0.1040 C   0  0  0  0  0  0  0  0  0  0  0  0
    1.5910    1.0840   -1.0430 C   0  0  0  0  0  0  0  0  0  0  0  0
    2.1030    2.3140   -0.6370 C   0  0  0  0  0  0  0  0  0  0  0  0
    2.4430    2.5570    0.6900 C   0  0  0  0  0  0  0  0  0  0  0  0
    2.9540    3.7930    1.0840 O   0  0  0  0  0  0  0  0  0  0  0  0
    2.2690    1.5590    1.6270 C   0  0  0  0  0  0  0  0  0  0  0  0
    2.6120    1.7940    2.9880 N   0  0  0  0  0  0  0  0  0  0  0  0
    1.7560    0.3310    1.2090 C   0  0  0  0  0  0  0  0  0  0  0  0
  1  2  1  0
  3  2  1  1
  3  4  1  0
  3 12  1  0
  4  5  2  0
  4 11  1  0
  5  6  1  0
  6  7  2  0
  7  8  1  0
  7  9  1  0
  9 10  1  0
  9 11  2  0
 12 13  1  6
 12 15  1  0
 13 14  1  0
 15 16  2  0
 15 22  1  0
 16 17  1  0
 17 18  2  0
 18 19  1  0
 18 20  1  0
 20 21  1  0
 20 22  2  0
M  END
>  <MODEL>  (53) 
       2

$$$$
../data/sim29_sdf/CHEMBL14927.pdb
     RDKit          3D

 22 23  0  0  1  0  0  0  0  0999 V2000
   -1.0200    3.8040    0.0250 C   0  0  0  0  0  0  0  0  0  0  0  0
   -1.5380    2.4700    0.3990 C   0  0  0  0  0  0  0  0  0  0  0  0
   -0.5740    1.3580    0.4740 C   0  0  1  0  0  0  0  0  0  0  0  0
   -1.3090    0.1310    0.8620 C   0  0  0  0  0  0  0  0  0  0  0  0
   -0.9650   -0.6650    1.9370 C   0  0  0  0  0  0  0  0  0  0  0  0
   -1.6430   -1.7880    2.3070 C   0  0  0  0  0  0  0  0  0  0  0  0
   -2.7460   -2.1830    1.5830 C   0  0  0  0  0  0  0  0  0  0  0  0
   -3.4810   -3.3230    1.9130 O   0  0  0  0  0  0  0  0  0  0  0  0
   -3.1290   -1.4320    0.5110 C   0  0  0  0  0  0  0  0  0  0  0  0
   -4.2720   -1.8420   -0.2370 N   0  0  0  0  0  0  0  0  0  0  0  0
   -2.4310   -0.2910    0.1440 C   0  0  0  0  0  0  0  0  0  0  0  0
    0.3190    1.1680   -0.7060 C   0  0  2  0  0  0  0  0  0  0  0  0
   -0.3270    0.8880   -2.0080 C   0  0  0  0  0  0  0  0  0  0  0  0
    0.8110    0.7430   -3.0340 C   0  0  0  0  0  0  0  0  0  0  0  0
    1.3230    0.1230   -0.3820 C   0  0  0  0  0  0  0  0  0  0  0  0
    1.0470   -1.2260   -0.3720 C   0  0  0  0  0  0  0  0  0  0  0  0
    1.9910   -2.1950   -0.0600 C   0  0  0  0  0  0  0  0  0  0  0  0
    3.2820   -1.8070    0.2600 C   0  0  0  0  0  0  0  0  0  0  0  0
    4.2540   -2.7360    0.5760 O   0  0  0  0  0  0  0  0  0  0  0  0
    3.5980   -0.4660    0.2600 C   0  0  0  0  0  0  0  0  0  0  0  0
    4.9240   -0.0710    0.5880 N   0  0  0  0  0  0  0  0  0  0  0  0
    2.6460    0.4510   -0.0500 C   0  0  0  0  0  0  0  0  0  0  0  0
  1  2  1  0
  3  2  1  6
  3  4  1  0
  3 12  1  0
  4  5  2  0
  4 11  1  0
  5  6  1  0
  6  7  2  0
  7  8  1  0
  7  9  1  0
  9 10  1  0
  9 11  2  0
 12 13  1  6
 12 15  1  0
 13 14  1  0
 15 16  2  0
 15 22  1  0
 16 17  1  0
 17 18  2  0
 18 19  1  0
 18 20  1  0
 20 21  1  0
 20 22  2  0
M  END
>  <MODEL>  (54) 
       3

$$$$
../data/sim29_sdf/CHEMBL1256471.pdb
     RDKit          3D

 13 13  0  0  1  0  0  0  0  0999 V2000
   -3.4310    0.4990    0.1610 C   0  0  0  0  0  0  0  0  0  0  0  0
   -2.0920   -0.2290    0.2310 C   0  0  1  0  0  0  0  0  0  0  0  0
   -2.1160   -1.2950   -0.7160 N   0  0  0  0  0  0  0  0  0  0  0  0
   -1.0180    0.7820   -0.0010 C   0  0  2  0  0  0  0  0  0  0  0  0
   -1.2080    1.3500   -1.2680 O   0  0  0  0  0  0  0  0  0  0  0  0
    0.3420    0.2600    0.1520 C   0  0  0  0  0  0  0  0  0  0  0  0
    0.6550   -0.9710    0.6980 C   0  0  0  0  0  0  0  0  0  0  0  0
    1.9590   -1.4150    0.8200 C   0  0  0  0  0  0  0  0  0  0  0  0
    3.0130   -0.6090    0.3820 C   0  0  0  0  0  0  0  0  0  0  0  0
    4.3310   -1.0050    0.4810 O   0  0  0  0  0  0  0  0  0  0  0  0
    2.7140    0.6220   -0.1650 C   0  0  0  0  0  0  0  0  0  0  0  0
    3.7430    1.4430   -0.6070 O   0  0  0  0  0  0  0  0  0  0  0  0
    1.3990    1.0450   -0.2760 C   0  0  0  0  0  0  0  0  0  0  0  0
  2  1  1  6
  2  3  1  0
  2  4  1  0
  4  5  1  6
  4  6  1  0
  6  7  2  0
  6 13  1  0
  7  8  1  0
  8  9  2  0
  9 10  1  0
  9 11  1  0
 11 12  1  0
 11 13  2  0
M  CHG  1   3   1
M  END
$$$$
../data/sim29_sdf/CHEMBL3637795.pdb
     RDKit          3D

 20 21  0  0  1  0  0  0  0  0999 V2000
    6.5450    1.0320    0.3390 N   0  0  0  0  0  0  0  0  0  0  0  0
    5.2610    0.4900    0.0640 C   0  0  0  0  0  0  0  0  0  0  0  0
    5.1210   -0.7450   -0.5360 C   0  0  0  0  0  0  0  0  0  0  0  0
    3.8960   -1.2890   -0.8160 C   0  0  0  0  0  0  0  0  0  0  0  0
    2.6910   -0.6050   -0.5010 C   0  0  0  0  0  0  0  0  0  0  0  0
    1.4160   -1.2510   -0.8790 C   0  0  1  0  0  0  0  0  0  0  0  0
    1.5980   -2.6730   -0.7360 O   0  0  0  0  0  0  0  0  0  0  0  0
    0.2270   -0.9070   -0.0670 C   0  0  0  0  0  0  0  0  0  0  0  0
   -0.1330    0.4640   -0.1400 N   0  0  0  0  0  0  0  0  0  0  0  0
   -1.4590    0.6460    0.4530 C   0  0  0  0  0  0  0  0  0  0  0  0
   -2.4420    0.0940   -0.5500 C   0  0  0  0  0  0  0  0  0  0  0  0
   -3.8380    0.1400   -0.1190 C   0  0  0  0  0  0  0  0  0  0  0  0
   -4.4160   -0.9560    0.5070 C   0  0  0  0  0  0  0  0  0  0  0  0
   -5.7250   -0.9480    0.9020 C   0  0  0  0  0  0  0  0  0  0  0  0
   -6.4670    0.1880    0.6610 C   0  0  0  0  0  0  0  0  0  0  0  0
   -5.9360    1.2990    0.0430 C   0  0  0  0  0  0  0  0  0  0  0  0
   -4.6060    1.2560   -0.3440 C   0  0  0  0  0  0  0  0  0  0  0  0
    2.8390    0.6130    0.0920 C   0  0  0  0  0  0  0  0  0  0  0  0
    4.1020    1.1670    0.3760 C   0  0  0  0  0  0  0  0  0  0  0  0
    4.1660    2.4140    0.9770 O   0  0  0  0  0  0  0  0  0  0  0  0
  1  2  1  0
  2  3  2  0
  2 19  1  0
  3  4  1  0
  4  5  2  0
  5  6  1  0
  5 18  1  0
  6  7  1  1
  6  8  1  0
  8  9  1  0
  9 10  1  0
 10 11  1  0
 11 12  1  0
 12 13  2  0
 12 17  1  0
 13 14  1  0
 14 15  2  0
 15 16  1  0
 16 17  2  0
 18 19  2  0
 19 20  1  0
M  CHG  1   9   1
M  END
>  <MODEL>  (56) 
       1

$$$$
../data/sim29_sdf/CHEMBL3637795.pdb
     RDKit          3D

 20 21  0  0  1  0  0  0  0  0999 V2000
    6.4020   -0.2040    1.8520 N   0  0  0  0  0  0  0  0  0  0  0  0
    5.2500   -0.1900    1.0260 C   0  0  0  0  0  0  0  0  0  0  0  0
    3.9790   -0.1230    1.6070 C   0  0  0  0  0  0  0  0  0  0  0  0
    2.8720   -0.0980    0.7870 C   0  0  0  0  0  0  0  0  0  0  0  0
    2.9120   -0.1320   -0.5840 C   0  0  0  0  0  0  0  0  0  0  0  0
    1.6800   -0.0960   -1.4200 C   0  0  2  0  0  0  0  0  0  0  0  0
    1.7320    0.9330   -2.3570 O   0  0  0  0  0  0  0  0  0  0  0  0
    0.4410    0.0210   -0.6020 C   0  0  0  0  0  0  0  0  0  0  0  0
   -0.7670   -0.0140   -1.4090 N   0  0  0  0  0  0  0  0  0  0  0  0
   -1.8850    0.0110   -0.4920 C   0  0  0  0  0  0  0  0  0  0  0  0
   -3.1900    0.0850   -1.2620 C   0  0  0  0  0  0  0  0  0  0  0  0
   -4.2790    0.0740   -0.2680 C   0  0  0  0  0  0  0  0  0  0  0  0
   -4.8260   -1.1470    0.0490 C   0  0  0  0  0  0  0  0  0  0  0  0
   -5.8290   -1.2150    0.9810 C   0  0  0  0  0  0  0  0  0  0  0  0
   -6.3070   -0.0780    1.6130 C   0  0  0  0  0  0  0  0  0  0  0  0
   -5.7330    1.1090    1.2650 C   0  0  0  0  0  0  0  0  0  0  0  0
   -4.7160    1.2390    0.3310 C   0  0  0  0  0  0  0  0  0  0  0  0
    4.1750   -0.1990   -1.1640 C   0  0  0  0  0  0  0  0  0  0  0  0
    5.3060   -0.2270   -0.3450 C   0  0  0  0  0  0  0  0  0  0  0  0
    6.5780   -0.2950   -0.9190 O   0  0  0  0  0  0  0  0  0  0  0  0
  1  2  1  0
  2  3  2  0
  2 19  1  0
  3  4  1  0
  4  5  2  0
  5  6  1  0
  5 18  1  0
  6  7  1  6
  6  8  1  0
  8  9  1  0
  9 10  1  0
 10 11  1  0
 11 12  1  0
 12 13  2  0
 12 17  1  0
 13 14  1  0
 14 15  2  0
 15 16  1  0
 16 17  2  0
 18 19  2  0
 19 20  1  0
M  CHG  1   9   1
M  END
>  <MODEL>  (57) 
       2

$$$$
