../data/sim29_sdf/CHEMBL677.pdb
     RDKit          3D

 13 13  0  0  1  0  0  0  0  0999 V2000
    3.4910    0.1810    0.1840 C   0  0  0  0  0  0  0  0  0  0  0  0
    2.0440    0.6780    0.0640 C   0  0  2  0  0  0  0  0  0  0  0  0
    1.7270    1.3000    1.3230 N   0  0  0  0  0  0  0  0  0  0  0  0
    1.1840   -0.4980   -0.1750 C   0  0  2  0  0  0  0  0  0  0  0  0
    1.4990   -1.1420   -1.3970 O   0  0  0  0  0  0  0  0  0  0  0  0
   -0.2640   -0.2970   -0.1280 C   0  0  0  0  0  0  0  0  0  0  0  0
   -1.0530   -1.4030   -0.4200 C   0  0  0  0  0  0  0  0  0  0  0  0
   -2.4230   -1.3690   -0.4240 C   0  0  0  0  0  0  0  0  0  0  0  0
   -3.0710   -0.1950   -0.1270 C   0  0  0  0  0  0  0  0  0  0  0  0
   -4.4600   -0.1080   -0.1170 O   0  0  0  0  0  0  0  0  0  0  0  0
   -2.3190    0.9080    0.1640 C   0  0  0  0  0  0  0  0  0  0  0  0
   -2.9480    2.0940    0.4640 O   0  0  0  0  0  0  0  0  0  0  0  0
   -0.9250    0.8680    0.1660 C   0  0  0  0  0  0  0  0  0  0  0  0
  2  1  1  1
  2  3  1  0
  2  4  1  0
  4  5  1  6
  4  6  1  0
  6  7  2  0
  6 13  1  0
  7  8  1  0
  8  9  2  0
  9 10  1  0
  9 11  1  0
 11 12  1  0
 11 13  2  0
M  CHG  1   3   1
M  END
$$$$
../data/sim29_sdf/CHEMBL155014.pdb
     RDKit          3D

 22 23  0  0  1  0  0  0  0  0999 V2000
   -0.3470   -2.0580    3.1410 C   0  0  0  0  0  0  0  0  0  0  0  0
   -0.9760   -1.1140    2.1590 C   0  0  0  0  0  0  0  0  0  0  0  0
   -0.8470   -1.3390    0.7340 C   0  0  1  0  0  0  0  0  0  0  0  0
   -1.6400   -0.2310    0.0440 C   0  0  0  0  0  0  0  0  0  0  0  0
   -2.6090   -0.5570   -0.8690 C   0  0  0  0  0  0  0  0  0  0  0  0
   -3.3240    0.4830   -1.4780 C   0  0  0  0  0  0  0  0  0  0  0  0
   -3.0820    1.8120   -1.1870 C   0  0  0  0  0  0  0  0  0  0  0  0
   -3.8240    2.8510   -1.8210 N   0  0  0  0  0  0  0  0  0  0  0  0
   -2.0990    2.0970   -0.2630 C   0  0  0  0  0  0  0  0  0  0  0  0
   -1.7980    3.4120    0.0830 O   0  0  0  0  0  0  0  0  0  0  0  0
   -1.3840    1.0480    0.3450 C   0  0  0  0  0  0  0  0  0  0  0  0
    0.3710   -1.6220   -0.0160 C   0  0  2  0  0  0  0  0  0  0  0  0
    1.2280   -2.7880    0.1670 C   0  0  0  0  0  0  0  0  0  0  0  0
    1.9490   -3.1480    1.3720 C   0  0  0  0  0  0  0  0  0  0  0  0
    1.2000   -0.3760   -0.3170 C   0  0  0  0  0  0  0  0  0  0  0  0
    1.9330    0.2620    0.6580 C   0  0  0  0  0  0  0  0  0  0  0  0
    2.6910    1.3930    0.3540 C   0  0  0  0  0  0  0  0  0  0  0  0
    2.7200    1.8930   -0.9280 C   0  0  0  0  0  0  0  0  0  0  0  0
    3.4900    3.0460   -1.2450 N   0  0  0  0  0  0  0  0  0  0  0  0
    1.9950    1.2720   -1.9220 C   0  0  0  0  0  0  0  0  0  0  0  0
    2.0190    1.7750   -3.2300 O   0  0  0  0  0  0  0  0  0  0  0  0
    1.2620    0.1600   -1.5760 C   0  0  0  0  0  0  0  0  0  0  0  0
  1  2  1  0
  3  2  1  1
  3  4  1  0
  3 12  1  0
  4  5  2  0
  4 11  1  0
  5  6  1  0
  6  7  2  0
  7  8  1  0
  7  9  1  0
  9 10  1  0
  9 11  2  0
 12 13  1  1
 12 15  1  0
 13 14  1  0
 15 16  2  0
 15 22  1  0
 16 17  1  0
 17 18  2  0
 18 19  1  0
 18 20  1  0
 20 21  1  0
 20 22  2  0
M  END
$$$$
../data/sim29_sdf/CHEMBL2062273.pdb
     RDKit          3D

 22 21  0  0  1  0  0  0  0  0999 V2000
   -2.1610   -0.8610    1.2980 N   0  0  0  0  0  0  0  0  0  0  0  0
   -2.5290    0.1260    0.3010 C   0  0  0  0  0  0  0  0  0  0  0  0
   -1.5980   -0.0340   -0.8600 C   0  0  1  0  0  0  0  0  0  0  0  0
   -1.8820    0.8910   -1.8870 O   0  0  0  0  0  0  0  0  0  0  0  0
   -0.1690    0.0670   -0.4710 C   0  0  0  0  0  0  0  0  0  0  0  0
    0.3860    1.3270   -0.2970 C   0  0  0  0  0  0  0  0  0  0  0  0
    1.7020    1.4480    0.0620 C   0  0  0  0  0  0  0  0  0  0  0  0
    2.4750    0.3270    0.2520 C   0  0  0  0  0  0  0  0  0  0  0  0
    3.8040    0.4240    0.6140 O   0  0  0  0  0  0  0  0  0  0  0  0
    1.9000   -0.9260    0.0720 C   0  0  0  0  0  0  0  0  0  0  0  0
    2.7140   -2.0330    0.2730 O   0  0  0  0  0  0  0  0  0  0  0  0
    0.5780   -1.0760   -0.2900 C   0  0  0  0  0  0  0  0  0  0  0  0
    2.8220    0.7400   -0.3270 O   0  0  0  0  0  0  0  0  0  0  0  0
    1.9500    0.2440    0.4420 C   0  0  0  0  0  0  0  0  0  0  0  0
    2.3460   -0.7270    1.3330 O   0  0  0  0  0  0  0  0  0  0  0  0
    0.5460    0.7300    0.3480 C   0  0  1  0  0  0  0  0  0  0  0  0
    0.3990    1.6990   -0.6130 O   0  0  0  0  0  0  0  0  0  0  0  0
   -0.3560   -0.4640    0.1220 C   0  0  2  0  0  0  0  0  0  0  0  0
   -0.1040   -1.0810   -1.1000 O   0  0  0  0  0  0  0  0  0  0  0  0
   -1.7900   -0.0950    0.2730 C   0  0  0  0  0  0  0  0  0  0  0  0
   -2.2450    0.4680    1.2900 O   0  0  0  0  0  0  0  0  0  0  0  0
   -2.6300   -0.4150   -0.7980 O   0  0  0  0  0  0  0  0  0  0  0  0
  1  2  1  0
  2  3  1  0
  3  4  1  6
  3  5  1  0
  5  6  2  0
  5 12  1  0
  6  7  1  0
  7  8  2  0
  8  9  1  0
  8 10  1  0
 10 11  1  0
 10 12  2  0
 13 14  2  0
 14 15  1  0
 14 16  1  0
 16 17  1  6
 16 18  1  0
 18 19  1  6
 18 20  1  0
 20 21  2  0
 20 22  1  0
M  CHG  1   1   1
M  END
$$$$
../data/sim29_sdf/CHEMBL288787.pdb
     RDKit          3D

 11 11  0  0  1  0  0  0  0  0999 V2000
   -2.6260    0.6630    1.0250 N   0  0  0  0  0  0  0  0  0  0  0  0
   -2.1020   -0.3890    0.1800 C   0  0  1  0  0  0  0  0  0  0  0  0
   -2.7430   -0.3460   -1.0590 O   0  0  0  0  0  0  0  0  0  0  0  0
   -0.6310   -0.3410    0.0630 C   0  0  0  0  0  0  0  0  0  0  0  0
    0.1090   -1.4880    0.1720 C   0  0  0  0  0  0  0  0  0  0  0  0
    1.4850   -1.4310    0.0610 C   0  0  0  0  0  0  0  0  0  0  0  0
    2.1350   -0.2300   -0.1590 C   0  0  0  0  0  0  0  0  0  0  0  0
    3.5290   -0.1550   -0.2740 O   0  0  0  0  0  0  0  0  0  0  0  0
    1.4080    0.9340   -0.2720 C   0  0  0  0  0  0  0  0  0  0  0  0
    2.0220    2.1700   -0.4950 O   0  0  0  0  0  0  0  0  0  0  0  0
    0.0370    0.8490   -0.1580 C   0  0  0  0  0  0  0  0  0  0  0  0
  2  1  1  1
  2  3  1  0
  2  4  1  0
  4  5  2  0
  4 11  1  0
  5  6  1  0
  6  7  2  0
  7  8  1  0
  7  9  1  0
  9 10  1  0
  9 11  2  0
M  CHG  1   1   1
M  END
$$$$
../data/sim29_sdf/CHEMBL432.pdb
     RDKit          3D

 12 12  0  0  1  0  0  0  0  0999 V2000
    3.6010    0.9400    0.1310 N   0  0  0  0  0  0  0  0  0  0  0  0
    2.1690    1.0370   -0.1030 C   0  0  0  0  0  0  0  0  0  0  0  0
    1.5580   -0.2800    0.2690 C   0  0  2  0  0  0  0  0  0  0  0  0
    2.1440   -1.2620   -0.5460 O   0  0  0  0  0  0  0  0  0  0  0  0
    0.0880   -0.3040    0.1450 C   0  0  0  0  0  0  0  0  0  0  0  0
   -0.5640   -1.5160    0.1730 C   0  0  0  0  0  0  0  0  0  0  0  0
   -1.9460   -1.6130    0.0620 C   0  0  0  0  0  0  0  0  0  0  0  0
   -2.6920   -0.4630   -0.0820 C   0  0  0  0  0  0  0  0  0  0  0  0
   -4.0760   -0.5220   -0.1960 O   0  0  0  0  0  0  0  0  0  0  0  0
   -2.0650    0.7650   -0.1130 C   0  0  0  0  0  0  0  0  0  0  0  0
   -2.8410    1.9120   -0.2590 O   0  0  0  0  0  0  0  0  0  0  0  0
   -0.7010    0.8070    0.0010 C   0  0  0  0  0  0  0  0  0  0  0  0
  1  2  1  0
  2  3  1  0
  3  4  1  6
  3  5  1  0
  5  6  2  0
  5 12  1  0
  6  7  1  0
  7  8  2  0
  8  9  1  0
  8 10  1  0
 10 11  1  0
 10 12  2  0
M  CHG  1   1   1
M  END
$$$$
../data/sim29_sdf/CHEMBL2062274.pdb
     RDKit          3D

 32 30  0  0  1  0  0  0  0  0999 V2000
    3.6790   -0.1150    0.2850 N   0  0  0  0  0  0  0  0  0  0  0  0
    2.2810   -0.2920    0.6060 C   0  0  0  0  0  0  0  0  0  0  0  0
    1.4180    0.1990   -0.5590 C   0  0  1  0  0  0  0  0  0  0  0  0
    1.7710   -0.5710   -1.6760 O   0  0  0  0  0  0  0  0  0  0  0  0
   -0.0070   -0.0230   -0.3040 C   0  0  0  0  0  0  0  0  0  0  0  0
   -0.5720   -1.2780   -0.3250 C   0  0  0  0  0  0  0  0  0  0  0  0
   -1.9220   -1.4550   -0.0800 C   0  0  0  0  0  0  0  0  0  0  0  0
   -2.7570   -0.3810    0.1950 C   0  0  0  0  0  0  0  0  0  0  0  0
   -4.1200   -0.5680    0.4410 O   0  0  0  0  0  0  0  0  0  0  0  0
   -2.1790    0.8720    0.2130 C   0  0  0  0  0  0  0  0  0  0  0  0
   -3.0210    1.9610    0.4900 O   0  0  0  0  0  0  0  0  0  0  0  0
   -0.8300    1.0480   -0.0320 C   0  0  0  0  0  0  0  0  0  0  0  0
    2.1620    0.0490    1.2540 O   0  0  0  0  0  0  0  0  0  0  0  0
    1.7000    0.1660    0.0910 C   0  0  0  0  0  0  0  0  0  0  0  0
    2.1930    1.1960   -0.6960 O   0  0  0  0  0  0  0  0  0  0  0  0
    0.6660   -0.7950   -0.3680 C   0  0  2  0  0  0  0  0  0  0  0  0
    0.2630   -0.5310   -1.6700 O   0  0  0  0  0  0  0  0  0  0  0  0
   -0.5400   -0.6970    0.5390 C   0  0  2  0  0  0  0  0  0  0  0  0
   -1.4600   -1.6450    0.0950 O   0  0  0  0  0  0  0  0  0  0  0  0
   -1.1450    0.6540    0.4770 C   0  0  0  0  0  0  0  0  0  0  0  0
   -0.5130    1.6690    0.8250 O   0  0  0  0  0  0  0  0  0  0  0  0
   -2.4450    0.8220    0.0250 O   0  0  0  0  0  0  0  0  0  0  0  0
   -2.3310   -0.2390    1.0740 O   0  0  0  0  0  0  0  0  0  0  0  0
   -1.5180    0.1940    0.2190 C   0  0  0  0  0  0  0  0  0  0  0  0
   -1.3470    1.5800    0.1610 O   0  0  0  0  0  0  0  0  0  0  0  0
   -0.7710   -0.6960   -0.6870 C   0  0  2  0  0  0  0  0  0  0  0  0
   -1.1360   -2.0190   -0.4090 O   0  0  0  0  0  0  0  0  0  0  0  0
    0.7310   -0.6050   -0.4600 C   0  0  2  0  0  0  0  0  0  0  0  0
    0.9750   -0.9400    0.8680 O   0  0  0  0  0  0  0  0  0  0  0  0
    1.2030    0.7930   -0.6450 C   0  0  0  0  0  0  0  0  0  0  0  0
    1.1210    1.3930   -1.7470 O   0  0  0  0  0  0  0  0  0  0  0  0
    1.7700    1.5310    0.3990 O   0  0  0  0  0  0  0  0  0  0  0  0
  1  2  1  0
  2  3  1  0
  3  4  1  6
  3  5  1  0
  5  6  2  0
  5 12  1  0
  6  7  1  0
  7  8  2  0
  8  9  1  0
  8 10  1  0
 10 11  1  0
 10 12  2  0
 13 14  2  0
 14 15  1  0
 14 16  1  0
 16 17  1  6
 16 18  1  0
 18 19  1  6
 18 20  1  0
 20 21  2  0
 20 22  1  0
 23 24  2  0
 24 25  1  0
 24 26  1  0
 26 27  1  1
 26 28  1  0
 28 29  1  1
 28 30  1  0
 30 31  2  0
 30 32  1  0
M  CHG  1   1   1
M  END
$$$$
../data/sim29_sdf/CHEMBL1320902.pdb
     RDKit          3D

 13 13  0  0  1  0  0  0  0  0999 V2000
   -2.0460    1.3830   -0.2920 C   0  0  0  0  0  0  0  0  0  0  0  0
   -1.9280    0.1830    0.6560 C   0  0  1  0  0  0  0  0  0  0  0  0
   -3.3260   -0.2540    0.8610 N   0  0  0  0  0  0  0  0  0  0  0  0
   -1.1490   -0.9200    0.0280 C   0  0  2  0  0  0  0  0  0  0  0  0
   -1.1960   -2.0820    0.8180 O   0  0  0  0  0  0  0  0  0  0  0  0
    0.3060   -0.6300   -0.1270 C   0  0  0  0  0  0  0  0  0  0  0  0
    1.1540   -1.6240   -0.6320 C   0  0  0  0  0  0  0  0  0  0  0  0
    2.4950   -1.3660   -0.7580 C   0  0  0  0  0  0  0  0  0  0  0  0
    3.0510   -0.1570   -0.4050 C   0  0  0  0  0  0  0  0  0  0  0  0
    4.4130    0.0930   -0.5380 O   0  0  0  0  0  0  0  0  0  0  0  0
    2.1910    0.7960    0.0860 C   0  0  0  0  0  0  0  0  0  0  0  0
    2.7190    2.0390    0.4560 O   0  0  0  0  0  0  0  0  0  0  0  0
    0.8190    0.5860    0.2350 C   0  0  0  0  0  0  0  0  0  0  0  0
  2  1  1  6
  2  3  1  0
  2  4  1  0
  4  5  1  1
  4  6  1  0
  6  7  2  0
  6 13  1  0
  7  8  1  0
  8  9  2  0
  9 10  1  0
  9 11  1  0
 11 12  1  0
 11 13  2  0
M  CHG  1   3   1
M  END
$$$$
../data/sim29_sdf/CHEMBL764.pdb
     RDKit          3D

 13 13  0  0  1  0  0  0  0  0999 V2000
   -3.2570   -0.9600    0.1400 C   0  0  0  0  0  0  0  0  0  0  0  0
   -2.0180   -0.0840    0.2480 C   0  0  2  0  0  0  0  0  0  0  0  0
   -2.2000    1.2140   -0.3160 N   0  0  0  0  0  0  0  0  0  0  0  0
   -0.8790   -0.8530   -0.3660 C   0  0  1  0  0  0  0  0  0  0  0  0
   -1.0900   -1.0370   -1.7470 O   0  0  0  0  0  0  0  0  0  0  0  0
    0.4290   -0.2060   -0.2020 C   0  0  0  0  0  0  0  0  0  0  0  0
    0.7870    0.8560   -1.0050 C   0  0  0  0  0  0  0  0  0  0  0  0
    2.0310    1.4090   -0.7860 C   0  0  0  0  0  0  0  0  0  0  0  0
    2.8760    0.9210    0.1920 C   0  0  0  0  0  0  0  0  0  0  0  0
    4.1150    1.4920    0.3900 O   0  0  0  0  0  0  0  0  0  0  0  0
    2.5240   -0.1420    1.0000 C   0  0  0  0  0  0  0  0  0  0  0  0
    3.3920   -0.6130    1.9760 O   0  0  0  0  0  0  0  0  0  0  0  0
    1.2770   -0.6900    0.7750 C   0  0  0  0  0  0  0  0  0  0  0  0
  2  1  1  6
  2  3  1  0
  2  4  1  0
  4  5  1  6
  4  6  1  0
  6  7  2  0
  6 13  1  0
  7  8  1  0
  8  9  2  0
  9 10  1  0
  9 11  1  0
 11 12  1  0
 11 13  2  0
M  CHG  1   3   1
M  END
$$$$
../data/sim29_sdf/CHEMBL1434513.pdb
     RDKit          3D

 23 21  0  0  1  0  0  0  0  0999 V2000
    2.1650    1.2960    0.7760 N   0  0  0  0  0  0  0  0  0  0  0  0
    2.3900    0.6500   -0.4770 C   0  0  0  0  0  0  0  0  0  0  0  0
    1.7190   -0.7120   -0.4270 C   0  0  2  0  0  0  0  0  0  0  0  0
    1.8870   -1.4110   -1.6040 O   0  0  0  0  0  0  0  0  0  0  0  0
    0.2920   -0.4720   -0.0900 C   0  0  0  0  0  0  0  0  0  0  0  0
   -0.1920   -0.6700    1.1880 C   0  0  0  0  0  0  0  0  0  0  0  0
   -1.5240   -0.4330    1.4510 C   0  0  0  0  0  0  0  0  0  0  0  0
   -2.3990    0.0020    0.4600 C   0  0  0  0  0  0  0  0  0  0  0  0
   -3.7420    0.2400    0.7270 O   0  0  0  0  0  0  0  0  0  0  0  0
   -1.9050    0.1960   -0.8120 C   0  0  0  0  0  0  0  0  0  0  0  0
   -2.7720    0.6330   -1.8170 O   0  0  0  0  0  0  0  0  0  0  0  0
   -0.5720   -0.0420   -1.0680 C   0  0  0  0  0  0  0  0  0  0  0  0
   -0.0020    0.3780   -0.0000 O   0  0  0  0  0  0  0  0  0  0  0  0
   -2.8240   -0.4120    0.1190 O   0  0  0  0  0  0  0  0  0  0  0  0
   -1.6880   -0.0790    0.5220 C   0  0  0  0  0  0  0  0  0  0  0  0
   -1.6060    0.9520    1.4350 O   0  0  0  0  0  0  0  0  0  0  0  0
   -0.5130   -0.7950    0.0110 C   0  0  1  0  0  0  0  0  0  0  0  0
   -0.9880   -1.8350   -0.8280 O   0  0  0  0  0  0  0  0  0  0  0  0
    0.3950    0.0790   -0.8650 C   0  0  2  0  0  0  0  0  0  0  0  0
    1.3940   -0.8400   -1.3000 O   0  0  0  0  0  0  0  0  0  0  0  0
    1.0670    1.1240   -0.0870 C   0  0  0  0  0  0  0  0  0  0  0  0
    0.4310    2.0960    0.3580 O   0  0  0  0  0  0  0  0  0  0  0  0
    2.4240    1.0610    0.1760 O   0  0  0  0  0  0  0  0  0  0  0  0
  1  2  1  0
  2  3  1  0
  3  4  1  6
  3  5  1  0
  5  6  2  0
  5 12  1  0
  6  7  1  0
  7  8  2  0
  8  9  1  0
  8 10  1  0
 10 11  1  0
 10 12  2  0
 14 15  2  0
 15 16  1  0
 15 17  1  0
 17 18  1  6
 17 19  1  0
 19 20  1  1
 19 21  1  0
 21 22  2  0
 21 23  1  0
M  CHG  1   1   1
M  END
$$$$
../data/sim29_sdf/CHEMBL1734806.pdb
     RDKit          3D

 13 12  0  0  1  0  0  0  0  0999 V2000
    0.6890    0.0000    0.0000 Cl  0  0  0  0  0  0  0  0  0  0  0  0
    2.6180    1.1090   -0.6310 N   0  0  0  0  0  0  0  0  0  0  0  0
    2.5010   -0.0210    0.2270 C   0  0  0  0  0  0  0  0  0  0  0  0
    1.4850   -1.0340   -0.1360 C   0  0  1  0  0  0  0  0  0  0  0  0
    1.5360   -2.0950    0.8090 O   0  0  0  0  0  0  0  0  0  0  0  0
    0.0800   -0.5710   -0.1090 C   0  0  0  0  0  0  0  0  0  0  0  0
   -0.9680   -1.5030   -0.1890 C   0  0  0  0  0  0  0  0  0  0  0  0
   -2.2800   -1.0910   -0.1580 C   0  0  0  0  0  0  0  0  0  0  0  0
   -2.6400    0.2350   -0.0500 C   0  0  0  0  0  0  0  0  0  0  0  0
   -3.9590    0.6700   -0.0180 O   0  0  0  0  0  0  0  0  0  0  0  0
   -1.6260    1.1590    0.0290 C   0  0  0  0  0  0  0  0  0  0  0  0
   -1.9610    2.4940    0.1380 O   0  0  0  0  0  0  0  0  0  0  0  0
   -0.2850    0.7460   -0.0010 C   0  0  0  0  0  0  0  0  0  0  0  0
  2  3  1  0
  3  4  1  0
  4  5  1  1
  4  6  1  0
  6  7  2  0
  6 13  1  0
  7  8  1  0
  8  9  2  0
  9 10  1  0
  9 11  1  0
 11 12  1  0
 11 13  2  0
M  CHG  1   2   1
M  END
$$$$
../data/sim29_sdf/CHEMBL1356607.pdb
     RDKit          3D

 22 21  0  0  1  0  0  0  0  0999 V2000
   -3.7820   -0.3520    0.5090 N   0  0  0  0  0  0  0  0  0  0  0  0
   -2.3640   -0.6170    0.8010 C   0  0  0  0  0  0  0  0  0  0  0  0
   -1.5760    0.3420   -0.0480 C   0  0  2  0  0  0  0  0  0  0  0  0
   -1.9070    0.0750   -1.3830 O   0  0  0  0  0  0  0  0  0  0  0  0
   -0.1050    0.1190    0.1580 C   0  0  0  0  0  0  0  0  0  0  0  0
    0.4170   -0.5660    1.2210 C   0  0  0  0  0  0  0  0  0  0  0  0
    1.7690   -0.7440    1.3690 C   0  0  0  0  0  0  0  0  0  0  0  0
    2.6470   -0.2200    0.4220 C   0  0  0  0  0  0  0  0  0  0  0  0
    4.0090   -0.4120    0.5910 O   0  0  0  0  0  0  0  0  0  0  0  0
    2.1260    0.4660   -0.6440 C   0  0  0  0  0  0  0  0  0  0  0  0
    2.9570    1.0090   -1.6190 O   0  0  0  0  0  0  0  0  0  0  0  0
    0.7630    0.6300   -0.7680 C   0  0  0  0  0  0  0  0  0  0  0  0
    0.9740   -2.0780   -0.2370 O   0  0  0  0  0  0  0  0  0  0  0  0
    1.3920   -0.8920   -0.2180 C   0  0  0  0  0  0  0  0  0  0  0  0
    2.6220   -0.6110   -0.8470 O   0  0  0  0  0  0  0  0  0  0  0  0
    0.6740    0.2030    0.4180 C   0  0  1  0  0  0  0  0  0  0  0  0
    1.4440    1.3760    0.3300 O   0  0  0  0  0  0  0  0  0  0  0  0
   -0.6640    0.5440   -0.2090 C   0  0  2  0  0  0  0  0  0  0  0  0
   -1.1500    1.6170    0.5750 O   0  0  0  0  0  0  0  0  0  0  0  0
   -1.6520   -0.5390   -0.1600 C   0  0  0  0  0  0  0  0  0  0  0  0
   -1.4780   -1.5800   -0.8380 O   0  0  0  0  0  0  0  0  0  0  0  0
   -2.7740   -0.4090    0.6360 O   0  0  0  0  0  0  0  0  0  0  0  0
  1  2  1  0
  2  3  1  0
  3  4  1  6
  3  5  1  0
  5  6  2  0
  5 12  1  0
  6  7  1  0
  7  8  2  0
  8  9  1  0
  8 10  1  0
 10 11  1  0
 10 12  2  0
 13 14  2  0
 14 15  1  0
 14 16  1  0
 16 17  1  6
 16 18  1  0
 18 19  1  1
 18 20  1  0
 20 21  2  0
 20 22  1  0
M  CHG  1   1   1
M  END
$$$$
../data/sim29_sdf/CHEMBL1545498.pdb
     RDKit          3D

 11 11  0  0  0  0  0  0  0  0999 V2000
   -2.4420   -0.1360    1.2440 C   0  0  0  0  0  0  0  0  0  0  0  0
   -1.8220   -0.3970   -0.1030 C   0  0  0  0  0  0  0  0  0  0  0  0
   -2.3160    0.6780   -1.0380 C   0  0  0  0  0  0  0  0  0  0  0  0
   -0.3320   -0.4230   -0.0440 C   0  0  0  0  0  0  0  0  0  0  0  0
    0.3740   -1.5450   -0.4030 C   0  0  0  0  0  0  0  0  0  0  0  0
    1.7630   -1.5770   -0.3510 C   0  0  0  0  0  0  0  0  0  0  0  0
    2.4470   -0.4530    0.0720 C   0  0  0  0  0  0  0  0  0  0  0  0
    3.8410   -0.4160    0.1480 O   0  0  0  0  0  0  0  0  0  0  0  0
    1.7110    0.6560    0.4250 C   0  0  0  0  0  0  0  0  0  0  0  0
    2.3990    1.8170    0.8610 N   0  0  0  0  0  0  0  0  0  0  0  0
    0.3340    0.7030    0.3780 C   0  0  0  0  0  0  0  0  0  0  0  0
  1  2  1  0
  2  3  1  0
  2  4  1  0
  4  5  2  0
  4 11  1  0
  5  6  1  0
  6  7  2  0
  7  8  1  0
  7  9  1  0
  9 10  1  0
  9 11  2  0
M  END
$$$$
../data/sim29_sdf/CHEMBL2130595.pdb
     RDKit          3D

 32 30  0  0  1  0  0  0  0  0999 V2000
   -3.4620   -0.3890   -1.2490 N   0  0  0  0  0  0  0  0  0  0  0  0
   -2.0060   -0.2710   -1.2640 C   0  0  0  0  0  0  0  0  0  0  0  0
   -1.5550   -0.3980    0.1750 C   0  0  2  0  0  0  0  0  0  0  0  0
   -2.1480    0.6310    0.9040 O   0  0  0  0  0  0  0  0  0  0  0  0
   -0.0780   -0.3100    0.2070 C   0  0  0  0  0  0  0  0  0  0  0  0
    0.6400   -1.4740    0.4330 C   0  0  0  0  0  0  0  0  0  0  0  0
    2.0210   -1.3580    0.4570 C   0  0  0  0  0  0  0  0  0  0  0  0
    2.6210   -0.1480    0.2640 C   0  0  0  0  0  0  0  0  0  0  0  0
    4.0030   -0.0620    0.2930 O   0  0  0  0  0  0  0  0  0  0  0  0
    1.9000    1.0020    0.0400 C   0  0  0  0  0  0  0  0  0  0  0  0
    2.5380    2.2330   -0.1550 O   0  0  0  0  0  0  0  0  0  0  0  0
    0.5420    0.9050    0.0140 C   0  0  0  0  0  0  0  0  0  0  0  0
    2.0100    0.2810    1.7150 O   0  0  0  0  0  0  0  0  0  0  0  0
    1.8240    0.0930    0.4920 C   0  0  0  0  0  0  0  0  0  0  0  0
    2.7740    0.5830   -0.3940 O   0  0  0  0  0  0  0  0  0  0  0  0
    0.6020   -0.6400    0.0350 C   0  0  2  0  0  0  0  0  0  0  0  0
    0.6500   -0.7030   -1.3340 O   0  0  0  0  0  0  0  0  0  0  0  0
   -0.5890    0.2010    0.5000 C   0  0  1  0  0  0  0  0  0  0  0  0
   -0.4930    1.4870    0.0130 O   0  0  0  0  0  0  0  0  0  0  0  0
   -1.8550   -0.4030    0.0200 C   0  0  0  0  0  0  0  0  0  0  0  0
   -2.1740   -1.5870    0.3360 O   0  0  0  0  0  0  0  0  0  0  0  0
   -2.7610    0.2740   -0.7890 O   0  0  0  0  0  0  0  0  0  0  0  0
    1.7750   -1.5300    0.8430 O   0  0  0  0  0  0  0  0  0  0  0  0
    1.7770   -0.3540    0.4210 C   0  0  0  0  0  0  0  0  0  0  0  0
    2.9520    0.1320   -0.1140 O   0  0  0  0  0  0  0  0  0  0  0  0
    0.5240    0.4200    0.5290 C   0  0  1  0  0  0  0  0  0  0  0  0
    0.6520    1.7130    0.0270 O   0  0  0  0  0  0  0  0  0  0  0  0
   -0.5520   -0.3590   -0.1970 C   0  0  2  0  0  0  0  0  0  0  0  0
   -0.2080   -0.4250   -1.5220 O   0  0  0  0  0  0  0  0  0  0  0  0
   -1.8960    0.1890    0.0160 C   0  0  0  0  0  0  0  0  0  0  0  0
   -2.5790    0.5320   -0.9820 O   0  0  0  0  0  0  0  0  0  0  0  0
   -2.4490    0.3460    1.2700 O   0  0  0  0  0  0  0  0  0  0  0  0
  1  2  1  0
  2  3  1  0
  3  4  1  1
  3  5  1  0
  5  6  2  0
  5 12  1  0
  6  7  1  0
  7  8  2  0
  8  9  1  0
  8 10  1  0
 10 11  1  0
 10 12  2  0
 13 14  2  0
 14 15  1  0
 14 16  1  0
 16 17  1  6
 16 18  1  0
 18 19  1  6
 18 20  1  0
 20 21  2  0
 20 22  1  0
 23 24  2  0
 24 25  1  0
 24 26  1  0
 26 27  1  6
 26 28  1  0
 28 29  1  6
 28 30  1  0
 30 31  2  0
 30 32  1  0
M  CHG  1   1   1
M  END
$$$$
../data/sim29_sdf/CHEMBL18824.pdb
     RDKit          3D

 12 12  0  0  1  0  0  0  0  0999 V2000
   -3.6000    0.8300   -0.0090 N   0  0  0  0  0  0  0  0  0  0  0  0
   -2.1380    0.9490   -0.0950 C   0  0  0  0  0  0  0  0  0  0  0  0
   -1.5720   -0.4060    0.1800 C   0  0  1  0  0  0  0  0  0  0  0  0
   -2.0470   -1.3150   -0.7670 O   0  0  0  0  0  0  0  0  0  0  0  0
   -0.0900   -0.4050    0.1680 C   0  0  0  0  0  0  0  0  0  0  0  0
    0.5890   -1.6120    0.1360 C   0  0  0  0  0  0  0  0  0  0  0  0
    1.9680   -1.6440    0.1250 C   0  0  0  0  0  0  0  0  0  0  0  0
    2.6860   -0.4640    0.1460 C   0  0  0  0  0  0  0  0  0  0  0  0
    4.0770   -0.4300    0.1370 O   0  0  0  0  0  0  0  0  0  0  0  0
    2.0180    0.7310    0.1780 C   0  0  0  0  0  0  0  0  0  0  0  0
    2.7380    1.9330    0.1990 O   0  0  0  0  0  0  0  0  0  0  0  0
    0.6330    0.7660    0.1890 C   0  0  0  0  0  0  0  0  0  0  0  0
  1  2  1  0
  2  3  1  0
  3  4  1  6
  3  5  1  0
  5  6  2  0
  5 12  1  0
  6  7  1  0
  7  8  2  0
  8  9  1  0
  8 10  1  0
 10 11  1  0
 10 12  2  0
M  CHG  1   1   1
M  END
$$$$
../data/sim29_sdf/CHEMBL85811.pdb
     RDKit          3D

 16 17  0  0  0  0  0  0  0  0999 V2000
    4.7650    1.0550   -0.5470 N   0  0  0  0  0  0  0  0  0  0  0  0
    3.3850    0.7390   -0.3870 C   0  0  0  0  0  0  0  0  0  0  0  0
    2.4620    1.3400   -1.2120 C   0  0  0  0  0  0  0  0  0  0  0  0
    1.1240    1.0360   -1.0610 C   0  0  0  0  0  0  0  0  0  0  0  0
    0.6740    0.1420   -0.1010 C   0  0  0  0  0  0  0  0  0  0  0  0
   -0.7550   -0.1320    0.0030 C   0  0  0  0  0  0  0  0  0  0  0  0
   -1.3070   -0.4450    1.2260 C   0  0  0  0  0  0  0  0  0  0  0  0
   -2.6540   -0.7100    1.3670 C   0  0  0  0  0  0  0  0  0  0  0  0
   -3.5070   -0.6720    0.2790 C   0  0  0  0  0  0  0  0  0  0  0  0
   -4.8920   -0.9500    0.4560 N   0  0  0  0  0  0  0  0  0  0  0  0
   -2.9680   -0.3600   -0.9470 C   0  0  0  0  0  0  0  0  0  0  0  0
   -3.8380   -0.3250   -2.0330 O   0  0  0  0  0  0  0  0  0  0  0  0
   -1.6170   -0.0960   -1.0750 C   0  0  0  0  0  0  0  0  0  0  0  0
    1.6000   -0.4580    0.7240 C   0  0  0  0  0  0  0  0  0  0  0  0
    2.9520   -0.1570    0.5780 C   0  0  0  0  0  0  0  0  0  0  0  0
    3.9110   -0.7410    1.3900 O   0  0  0  0  0  0  0  0  0  0  0  0
  1  2  1  0
  2  3  2  0
  2 15  1  0
  3  4  1  0
  4  5  2  0
  5  6  1  0
  5 14  1  0
  6  7  2  0
  6 13  1  0
  7  8  1  0
  8  9  2  0
  9 10  1  0
  9 11  1  0
 11 12  1  0
 11 13  2  0
 14 15  2  0
 15 16  1  0
M  END
$$$$
../data/sim29_sdf/CHEMBL2074780.pdb
     RDKit          3D

 13 13  0  0  1  0  0  0  0  0999 V2000
    2.6050    1.0630    1.3040 O   0  0  0  0  0  0  0  0  0  0  0  0
    2.7060    0.3850    0.2660 C   0  0  0  0  0  0  0  0  0  0  0  0
    3.7040    0.7260   -0.6350 O   0  0  0  0  0  0  0  0  0  0  0  0
    1.8340   -0.7580   -0.0720 C   0  0  2  0  0  0  0  0  0  0  0  0
    2.1830   -1.3220   -1.2950 O   0  0  0  0  0  0  0  0  0  0  0  0
    0.4020   -0.4150   -0.0430 C   0  0  0  0  0  0  0  0  0  0  0  0
   -0.1800    0.2190   -1.1140 C   0  0  0  0  0  0  0  0  0  0  0  0
   -1.5380    0.5430   -1.0820 C   0  0  0  0  0  0  0  0  0  0  0  0
   -2.2740    0.2150    0.0350 C   0  0  0  0  0  0  0  0  0  0  0  0
   -3.6380    0.5140    0.1230 O   0  0  0  0  0  0  0  0  0  0  0  0
   -1.7180   -0.4230    1.1260 C   0  0  0  0  0  0  0  0  0  0  0  0
   -2.4170   -0.7680    2.2600 O   0  0  0  0  0  0  0  0  0  0  0  0
   -0.3690   -0.7250    1.0540 C   0  0  0  0  0  0  0  0  0  0  0  0
  1  2  2  0
  2  3  1  0
  2  4  1  0
  4  5  1  6
  4  6  1  0
  6  7  2  0
  6 13  1  0
  7  8  1  0
  8  9  2  0
  9 10  1  0
  9 11  1  0
 11 12  1  0
 11 13  2  0
M  END
$$$$
../data/sim29_sdf/CHEMBL164989.pdb
     RDKit          3D

 11 11  0  0  0  0  0  0  0  0999 V2000
   -2.6180   -0.8560    0.1710 N   0  0  0  0  0  0  0  0  0  0  0  0
   -1.2510   -0.5290    0.0520 C   0  0  0  0  0  0  0  0  0  0  0  0
   -0.3300   -1.4830   -0.3270 C   0  0  0  0  0  0  0  0  0  0  0  0
    1.0080   -1.1310   -0.4360 C   0  0  0  0  0  0  0  0  0  0  0  0
    1.4450    0.1490   -0.1760 C   0  0  0  0  0  0  0  0  0  0  0  0
    2.8070    0.4970   -0.2900 N   0  0  0  0  0  0  0  0  0  0  0  0
    3.6720   -0.3300   -0.6280 O   0  0  0  0  0  0  0  0  0  0  0  0
    3.1990    1.7800   -0.0220 O   0  0  0  0  0  0  0  0  0  0  0  0
    0.5020    1.0810    0.2000 C   0  0  0  0  0  0  0  0  0  0  0  0
   -0.8410    0.7570    0.3170 C   0  0  0  0  0  0  0  0  0  0  0  0
   -1.7730    1.7100    0.6970 O   0  0  0  0  0  0  0  0  0  0  0  0
  1  2  1  0
  2  3  2  0
  2 10  1  0
  3  4  1  0
  4  5  2  0
  5  6  1  0
  5  9  1  0
  6  7  2  0
  6  8  1  0
  9 10  2  0
 10 11  1  0
M  CHG  2   6   1   8  -1
M  END
$$$$
../data/sim29_sdf/CHEMBL2311152.pdb
     RDKit          3D

 12 12  0  0  1  0  0  0  0  0999 V2000
   -1.5990    0.4580    0.1810 C   0  0  1  0  0  0  0  0  0  0  0  0
   -2.1260    1.2120   -0.8800 O   0  0  0  0  0  0  0  0  0  0  0  0
   -2.2980   -0.8890    0.2110 C   0  0  0  0  0  0  0  0  0  0  0  0
   -3.7180   -0.6340    0.4080 N   0  0  0  0  0  0  0  0  0  0  0  0
   -0.1270    0.3000    0.0630 C   0  0  0  0  0  0  0  0  0  0  0  0
    0.4420   -0.0290   -1.1550 C   0  0  0  0  0  0  0  0  0  0  0  0
    1.7860   -0.1900   -1.3350 C   0  0  0  0  0  0  0  0  0  0  0  0
    2.6170   -0.0100   -0.2270 C   0  0  0  0  0  0  0  0  0  0  0  0
    3.9880   -0.1590   -0.3430 O   0  0  0  0  0  0  0  0  0  0  0  0
    2.0870    0.3170    0.9990 C   0  0  0  0  0  0  0  0  0  0  0  0
    2.8860    0.5010    2.1130 O   0  0  0  0  0  0  0  0  0  0  0  0
    0.7010    0.4750    1.1490 C   0  0  0  0  0  0  0  0  0  0  0  0
  1  2  1  6
  1  3  1  0
  1  5  1  0
  3  4  1  0
  5  6  2  0
  5 12  1  0
  6  7  1  0
  7  8  2  0
  8  9  1  0
  8 10  1  0
 10 11  1  0
 10 12  2  0
M  CHG  1   4   1
M  END
$$$$
../data/sim29_sdf/CHEMBL1160982.pdb
     RDKit          3D

 13 13  0  0  1  0  0  0  0  0999 V2000
   -3.4050    0.2820   -0.1230 C   0  0  0  0  0  0  0  0  0  0  0  0
   -1.9780    0.1570    0.4290 C   0  0  1  0  0  0  0  0  0  0  0  0
   -1.8210   -1.2090    0.8170 N   0  0  0  0  0  0  0  0  0  0  0  0
   -1.0620    0.5300   -0.7340 C   0  0  1  0  0  0  0  0  0  0  0  0
   -1.2250    1.8540   -1.0970 O   0  0  0  0  0  0  0  0  0  0  0  0
    0.3450    0.1640   -0.4620 C   0  0  0  0  0  0  0  0  0  0  0  0
    0.8750   -1.0080   -0.9700 C   0  0  0  0  0  0  0  0  0  0  0  0
    2.1840   -1.3780   -0.7350 C   0  0  0  0  0  0  0  0  0  0  0  0
    3.0180   -0.5760    0.0270 C   0  0  0  0  0  0  0  0  0  0  0  0
    4.3360   -0.9120    0.2860 O   0  0  0  0  0  0  0  0  0  0  0  0
    2.5090    0.5830    0.5350 C   0  0  0  0  0  0  0  0  0  0  0  0
    3.3400    1.3980    1.3040 O   0  0  0  0  0  0  0  0  0  0  0  0
    1.1920    0.9470    0.2930 C   0  0  0  0  0  0  0  0  0  0  0  0
  2  1  1  6
  2  3  1  0
  2  4  1  0
  4  5  1  1
  4  6  1  0
  6  7  2  0
  6 13  1  0
  7  8  1  0
  8  9  2  0
  9 10  1  0
  9 11  1  0
 11 12  1  0
 11 13  2  0
M  CHG  1   3   1
M  END
$$$$
../data/sim29_sdf/CHEMBL1350643.pdb
     RDKit          3D

 17 18  0  0  0  0  0  0  0  0999 V2000
    4.8140    0.7830    0.9490 N   0  0  0  0  0  0  0  0  0  0  0  0
    3.5780    0.4470    0.2910 C   0  0  0  0  0  0  0  0  0  0  0  0
    2.9870    1.3440   -0.5700 C   0  0  0  0  0  0  0  0  0  0  0  0
    1.7900    0.9790   -1.1870 C   0  0  0  0  0  0  0  0  0  0  0  0
    1.1900   -0.2360   -0.9640 C   0  0  0  0  0  0  0  0  0  0  0  0
   -0.0670   -0.6430   -1.5990 C   0  0  0  0  0  0  0  0  0  0  0  0
   -1.2730   -0.2710   -0.8180 C   0  0  0  0  0  0  0  0  0  0  0  0
   -1.8550    0.9550   -1.0550 C   0  0  0  0  0  0  0  0  0  0  0  0
   -2.9800    1.3470   -0.3530 C   0  0  0  0  0  0  0  0  0  0  0  0
   -3.5410    0.5180    0.5980 C   0  0  0  0  0  0  0  0  0  0  0  0
   -4.7120    0.9220    1.3310 N   0  0  0  0  0  0  0  0  0  0  0  0
   -2.9720   -0.7150    0.8500 C   0  0  0  0  0  0  0  0  0  0  0  0
   -3.5540   -1.5310    1.8120 O   0  0  0  0  0  0  0  0  0  0  0  0
   -1.8510   -1.0800    0.1360 C   0  0  0  0  0  0  0  0  0  0  0  0
    1.8180   -1.1080   -0.0900 C   0  0  0  0  0  0  0  0  0  0  0  0
    3.0060   -0.7690    0.5350 C   0  0  0  0  0  0  0  0  0  0  0  0
    3.5990   -1.6900    1.4100 O   0  0  0  0  0  0  0  0  0  0  0  0
  1  2  1  0
  2  3  2  0
  2 16  1  0
  3  4  1  0
  4  5  2  0
  5  6  1  0
  5 15  1  0
  6  7  1  0
  7  8  2  0
  7 14  1  0
  8  9  1  0
  9 10  2  0
 10 11  1  0
 10 12  1  0
 12 13  1  0
 12 14  2  0
 15 16  2  0
 16 17  1  0
M  END
$$$$
../data/sim29_sdf/CHEMBL1612659.pdb
     RDKit          3D

 14 13  0  0  1  0  0  0  0  0999 V2000
   -2.4930    0.9970   -0.4630 C   0  0  0  0  0  0  0  0  0  0  0  0
   -2.2650   -0.3550    0.1410 C   0  0  1  0  0  0  0  0  0  0  0  0
   -2.0190   -1.3920   -0.8200 N   0  0  0  0  0  0  0  0  0  0  0  0
   -1.1880   -0.3490    1.2100 C   0  0  1  0  0  0  0  0  0  0  0  0
   -1.2440   -1.6220    1.8220 O   0  0  0  0  0  0  0  0  0  0  0  0
    0.1540   -0.1110    0.6230 C   0  0  0  0  0  0  0  0  0  0  0  0
    0.7720   -1.1000   -0.1130 C   0  0  0  0  0  0  0  0  0  0  0  0
    2.0270   -0.8910   -0.6680 C   0  0  0  0  0  0  0  0  0  0  0  0
    2.7080    0.2960   -0.5130 C   0  0  0  0  0  0  0  0  0  0  0  0
    3.9730    0.5140   -1.0690 O   0  0  0  0  0  0  0  0  0  0  0  0
    2.0980    1.2890    0.2210 C   0  0  0  0  0  0  0  0  0  0  0  0
    2.7570    2.5060    0.4000 O   0  0  0  0  0  0  0  0  0  0  0  0
    0.8360    1.0770    0.7780 C   0  0  0  0  0  0  0  0  0  0  0  0
    0.6850    0.0000    0.0000 Cl  0  0  0  0  0  0  0  0  0  0  0  0
  2  1  1  6
  2  3  1  0
  2  4  1  0
  4  5  1  6
  4  6  1  0
  6  7  2  0
  6 13  1  0
  7  8  1  0
  8  9  2  0
  9 10  1  0
  9 11  1  0
 11 12  1  0
 11 13  2  0
M  CHG  1   3   1
M  END
$$$$
../data/sim29_sdf/CHEMBL1462.pdb
     RDKit          3D

 11 11  0  0  0  0  0  0  0  0999 V2000
    2.9390   -0.2200   -0.0640 N   0  0  0  0  0  0  0  0  0  0  0  0
    1.5280   -0.2710   -0.0690 C   0  0  0  0  0  0  0  0  0  0  0  0
    0.8020   -1.4160   -0.2660 C   0  0  0  0  0  0  0  0  0  0  0  0
   -0.5680   -1.3870   -0.2570 C   0  0  0  0  0  0  0  0  0  0  0  0
   -1.2500   -0.2070   -0.0490 C   0  0  0  0  0  0  0  0  0  0  0  0
   -2.7170   -0.1700   -0.0370 C   0  0  0  0  0  0  0  0  0  0  0  0
   -3.3280   -1.2420   -0.2230 O   0  0  0  0  0  0  0  0  0  0  0  0
   -3.4160    1.0030    0.1700 O   0  0  0  0  0  0  0  0  0  0  0  0
   -0.5320    0.9510    0.1510 C   0  0  0  0  0  0  0  0  0  0  0  0
    0.8430    0.9190    0.1410 C   0  0  0  0  0  0  0  0  0  0  0  0
    1.5320    2.1080    0.3470 O   0  0  0  0  0  0  0  0  0  0  0  0
  1  2  1  0
  2  3  2  0
  2 10  1  0
  3  4  1  0
  4  5  2  0
  5  6  1  0
  5  9  1  0
  6  7  2  0
  6  8  1  0
  9 10  2  0
 10 11  1  0
M  END
$$$$
../data/sim29_sdf/CHEMBL3273169.pdb
     RDKit          3D

 13 12  0  0  1  0  0  0  0  0999 V2000
    0.7620    0.0000    0.0000 Br  0  0  0  0  0  0  0  0  0  0  0  0
   -3.5880    0.7960    0.6170 N   0  0  0  0  0  0  0  0  0  0  0  0
   -2.1440    0.8720    0.6100 C   0  0  0  0  0  0  0  0  0  0  0  0
   -1.5850   -0.2000   -0.3030 C   0  0  2  0  0  0  0  0  0  0  0  0
   -2.0250   -1.4280    0.2210 O   0  0  0  0  0  0  0  0  0  0  0  0
   -0.1140   -0.2040   -0.3270 C   0  0  0  0  0  0  0  0  0  0  0  0
    0.5380   -1.3270   -0.7950 C   0  0  0  0  0  0  0  0  0  0  0  0
    1.9080   -1.4260   -0.8560 C   0  0  0  0  0  0  0  0  0  0  0  0
    2.6750   -0.3780   -0.4400 C   0  0  0  0  0  0  0  0  0  0  0  0
    4.0480   -0.4410   -0.4860 O   0  0  0  0  0  0  0  0  0  0  0  0
    2.0470    0.7740    0.0390 C   0  0  0  0  0  0  0  0  0  0  0  0
    2.8700    1.8100    0.4490 O   0  0  0  0  0  0  0  0  0  0  0  0
    0.6720    0.8490    0.0900 C   0  0  0  0  0  0  0  0  0  0  0  0
  2  3  1  0
  3  4  1  0
  4  5  1  1
  4  6  1  0
  6  7  2  0
  6 13  1  0
  7  8  1  0
  8  9  2  0
  9 10  1  0
  9 11  1  0
 11 12  1  0
 11 13  2  0
M  CHG  1   2   1
M  END
$$$$
../data/sim29_sdf/CHEMBL1437.pdb
     RDKit          3D

 12 12  0  0  1  0  0  0  0  0999 V2000
   -3.1100   -0.3610    2.0110 N   0  0  0  0  0  0  0  0  0  0  0  0
   -1.7480   -0.1650    1.5560 C   0  0  0  0  0  0  0  0  0  0  0  0
   -1.6520   -0.0780    0.0610 C   0  0  2  0  0  0  0  0  0  0  0  0
   -2.1130   -1.2290   -0.5650 O   0  0  0  0  0  0  0  0  0  0  0  0
   -0.2210    0.1280   -0.2890 C   0  0  0  0  0  0  0  0  0  0  0  0
    0.2640    1.3650   -0.6560 C   0  0  0  0  0  0  0  0  0  0  0  0
    1.5970    1.5220   -0.9750 C   0  0  0  0  0  0  0  0  0  0  0  0
    2.4990    0.4790   -0.9470 C   0  0  0  0  0  0  0  0  0  0  0  0
    3.8460    0.6810   -1.2780 O   0  0  0  0  0  0  0  0  0  0  0  0
    2.0240   -0.7580   -0.5820 C   0  0  0  0  0  0  0  0  0  0  0  0
    2.8690   -1.8350   -0.5340 O   0  0  0  0  0  0  0  0  0  0  0  0
    0.6950   -0.9030   -0.2670 C   0  0  0  0  0  0  0  0  0  0  0  0
  1  2  1  0
  2  3  1  0
  3  4  1  6
  3  5  1  0
  5  6  2  0
  5 12  1  0
  6  7  1  0
  7  8  2  0
  8  9  1  0
  8 10  1  0
 10 11  1  0
 10 12  2  0
M  CHG  1   1   1
M  END
$$$$
../data/sim29_sdf/CHEMBL270197.pdb
     RDKit          3D

  9  9  0  0  0  0  0  0  0  0999 V2000
    2.4200   -0.3100    0.4070 N   0  0  0  0  0  0  0  0  0  0  0  0
    1.0160   -0.2340    0.1520 C   0  0  0  0  0  0  0  0  0  0  0  0
    0.2170   -1.3590    0.1670 C   0  0  0  0  0  0  0  0  0  0  0  0
   -1.1380   -1.2730   -0.0810 C   0  0  0  0  0  0  0  0  0  0  0  0
   -1.7640   -0.0730   -0.3530 C   0  0  0  0  0  0  0  0  0  0  0  0
   -3.1290    0.0020   -0.6010 O   0  0  0  0  0  0  0  0  0  0  0  0
   -0.9570    1.0550   -0.3670 C   0  0  0  0  0  0  0  0  0  0  0  0
    0.3960    0.9670   -0.1190 C   0  0  0  0  0  0  0  0  0  0  0  0
    1.1810    2.1070   -0.1380 O   0  0  0  0  0  0  0  0  0  0  0  0
  1  2  1  0
  2  3  2  0
  2  8  1  0
  3  4  1  0
  4  5  2  0
  5  6  1  0
  5  7  1  0
  7  8  2  0
  8  9  1  0
M  END
$$$$
../data/sim29_sdf/CHEMBL3248963.pdb
     RDKit          3D

 13 12  0  0  1  0  0  0  0  0999 V2000
    0.6870    0.0000    0.0000 Cl  0  0  0  0  0  0  0  0  0  0  0  0
    3.4470    1.2530   -0.3180 N   0  0  0  0  0  0  0  0  0  0  0  0
    1.9900    1.2160   -0.3510 C   0  0  0  0  0  0  0  0  0  0  0  0
    1.5680   -0.2270   -0.2630 C   0  0  2  0  0  0  0  0  0  0  0  0
    2.0960   -0.9310   -1.3420 O   0  0  0  0  0  0  0  0  0  0  0  0
    0.1160   -0.4060   -0.1700 C   0  0  0  0  0  0  0  0  0  0  0  0
   -0.3790   -1.6950   -0.3210 C   0  0  0  0  0  0  0  0  0  0  0  0
   -1.7380   -1.9240   -0.2430 C   0  0  0  0  0  0  0  0  0  0  0  0
   -2.5960   -0.8680   -0.0150 C   0  0  0  0  0  0  0  0  0  0  0  0
   -3.9590   -1.1080    0.0620 O   0  0  0  0  0  0  0  0  0  0  0  0
   -2.0730    0.4120    0.1320 C   0  0  0  0  0  0  0  0  0  0  0  0
   -2.9400    1.4710    0.3610 O   0  0  0  0  0  0  0  0  0  0  0  0
   -0.7150    0.6580    0.0570 C   0  0  0  0  0  0  0  0  0  0  0  0
  2  3  1  0
  3  4  1  0
  4  5  1  6
  4  6  1  0
  6  7  2  0
  6 13  1  0
  7  8  1  0
  8  9  2  0
  9 10  1  0
  9 11  1  0
 11 12  1  0
 11 13  2  0
M  CHG  1   2   1
M  END
$$$$
../data/sim29_sdf/CHEMBL14927.pdb
     RDKit          3D

 22 23  0  0  1  0  0  0  0  0999 V2000
    2.5410   -2.6810    0.9960 C   0  0  0  0  0  0  0  0  0  0  0  0
    1.7030   -2.4110   -0.2380 C   0  0  0  0  0  0  0  0  0  0  0  0
    0.5380   -1.5170    0.1090 C   0  0  1  0  0  0  0  0  0  0  0  0
    1.1000   -0.2470    0.6370 C   0  0  0  0  0  0  0  0  0  0  0  0
    0.8910    0.1750    1.9340 C   0  0  0  0  0  0  0  0  0  0  0  0
    1.4260    1.3670    2.4070 C   0  0  0  0  0  0  0  0  0  0  0  0
    2.1860    2.1690    1.5950 C   0  0  0  0  0  0  0  0  0  0  0  0
    2.6920    3.3510    2.1360 O   0  0  0  0  0  0  0  0  0  0  0  0
    2.4130    1.7800    0.3050 C   0  0  0  0  0  0  0  0  0  0  0  0
    3.1980    2.6120   -0.5300 N   0  0  0  0  0  0  0  0  0  0  0  0
    1.8710    0.5950   -0.1390 C   0  0  0  0  0  0  0  0  0  0  0  0
   -0.3770   -1.2560   -1.0430 C   0  0  1  0  0  0  0  0  0  0  0  0
   -1.0130   -2.4460   -1.6440 C   0  0  0  0  0  0  0  0  0  0  0  0
   -1.8690   -3.2800   -0.7830 C   0  0  0  0  0  0  0  0  0  0  0  0
   -1.3140   -0.1550   -0.7040 C   0  0  0  0  0  0  0  0  0  0  0  0
   -2.2710   -0.2830    0.3030 C   0  0  0  0  0  0  0  0  0  0  0  0
   -3.1380    0.7120    0.6260 C   0  0  0  0  0  0  0  0  0  0  0  0
   -3.1110    1.9170   -0.0390 C   0  0  0  0  0  0  0  0  0  0  0  0
   -4.0000    2.9610    0.2810 O   0  0  0  0  0  0  0  0  0  0  0  0
   -2.1770    2.0960   -1.0500 C   0  0  0  0  0  0  0  0  0  0  0  0
   -2.1340    3.3280   -1.7460 N   0  0  0  0  0  0  0  0  0  0  0  0
   -1.3130    1.0670   -1.3530 C   0  0  0  0  0  0  0  0  0  0  0  0
  1  2  1  0
  3  2  1  6
  3  4  1  0
  3 12  1  0
  4  5  2  0
  4 11  1  0
  5  6  1  0
  6  7  2  0
  7  8  1  0
  7  9  1  0
  9 10  1  0
  9 11  2  0
 12 13  1  1
 12 15  1  0
 13 14  1  0
 15 16  2  0
 15 22  1  0
 16 17  1  0
 17 18  2  0
 18 19  1  0
 18 20  1  0
 20 21  1  0
 20 22  2  0
M  END
$$$$
../data/sim29_sdf/CHEMBL1256471.pdb
     RDKit          3D

 13 13  0  0  1  0  0  0  0  0999 V2000
   -3.0420    0.0560    1.5300 C   0  0  0  0  0  0  0  0  0  0  0  0
   -1.6050   -0.2170    1.1340 C   0  0  1  0  0  0  0  0  0  0  0  0
   -1.2740   -1.5750    1.4390 N   0  0  0  0  0  0  0  0  0  0  0  0
   -1.3790    0.1340   -0.3290 C   0  0  2  0  0  0  0  0  0  0  0  0
   -2.1390   -0.6460   -1.1660 O   0  0  0  0  0  0  0  0  0  0  0  0
    0.0710    0.0870   -0.6160 C   0  0  0  0  0  0  0  0  0  0  0  0
    0.6960   -1.1270   -0.8580 C   0  0  0  0  0  0  0  0  0  0  0  0
    2.0520   -1.1660   -1.1260 C   0  0  0  0  0  0  0  0  0  0  0  0
    2.8330   -0.0300   -1.1670 C   0  0  0  0  0  0  0  0  0  0  0  0
    4.1960   -0.1120   -1.4410 O   0  0  0  0  0  0  0  0  0  0  0  0
    2.2060    1.1760   -0.9270 C   0  0  0  0  0  0  0  0  0  0  0  0
    2.9980    2.3360   -0.9670 O   0  0  0  0  0  0  0  0  0  0  0  0
    0.8530    1.2240   -0.6580 C   0  0  0  0  0  0  0  0  0  0  0  0
  2  1  1  6
  2  3  1  0
  2  4  1  0
  4  5  1  6
  4  6  1  0
  6  7  2  0
  6 13  1  0
  7  8  1  0
  8  9  2  0
  9 10  1  0
  9 11  1  0
 11 12  1  0
 11 13  2  0
M  CHG  1   3   1
M  END
$$$$
../data/sim29_sdf/CHEMBL3637795.pdb
     RDKit          3D

 20 21  0  0  1  0  0  0  0  0999 V2000
    6.6720   -0.4890    0.7460 N   0  0  0  0  0  0  0  0  0  0  0  0
    5.3660   -0.1740    0.2990 C   0  0  0  0  0  0  0  0  0  0  0  0
    5.2780    0.6910   -0.7840 C   0  0  0  0  0  0  0  0  0  0  0  0
    4.0370    1.0240   -1.2490 C   0  0  0  0  0  0  0  0  0  0  0  0
    2.8640    0.5280   -0.6780 C   0  0  0  0  0  0  0  0  0  0  0  0
    1.6070    0.9850   -1.2940 C   0  0  2  0  0  0  0  0  0  0  0  0
    1.6120    2.3570   -1.5440 O   0  0  0  0  0  0  0  0  0  0  0  0
    0.3830    0.6900   -0.4380 C   0  0  0  0  0  0  0  0  0  0  0  0
   -0.7560    1.0970   -1.1720 N   0  0  0  0  0  0  0  0  0  0  0  0
   -2.0280    0.9290   -0.5940 C   0  0  0  0  0  0  0  0  0  0  0  0
   -2.4700   -0.5070   -0.4370 C   0  0  0  0  0  0  0  0  0  0  0  0
   -3.8220   -0.5840    0.1790 C   0  0  0  0  0  0  0  0  0  0  0  0
   -4.0310   -0.6600    1.5420 C   0  0  0  0  0  0  0  0  0  0  0  0
   -5.3070   -0.7270    2.0930 C   0  0  0  0  0  0  0  0  0  0  0  0
   -6.4150   -0.7190    1.2750 C   0  0  0  0  0  0  0  0  0  0  0  0
   -6.2370   -0.6440   -0.0810 C   0  0  0  0  0  0  0  0  0  0  0  0
   -4.9610   -0.5780   -0.6150 C   0  0  0  0  0  0  0  0  0  0  0  0
    2.9960   -0.3130    0.3760 C   0  0  0  0  0  0  0  0  0  0  0  0
    4.2140   -0.6750    0.8770 C   0  0  0  0  0  0  0  0  0  0  0  0
    4.3820   -1.5330    1.9540 O   0  0  0  0  0  0  0  0  0  0  0  0
  1  2  1  0
  2  3  2  0
  2 19  1  0
  3  4  1  0
  4  5  2  0
  5  6  1  0
  5 18  1  0
  6  7  1  1
  6  8  1  0
  8  9  1  0
  9 10  1  0
 10 11  1  0
 11 12  1  0
 12 13  2  0
 12 17  1  0
 13 14  1  0
 14 15  2  0
 15 16  1  0
 16 17  2  0
 18 19  2  0
 19 20  1  0
M  CHG  1   9   1
M  END
$$$$
