../data/sim29_sdf/CHEMBL677.pdb
     RDKit          3D

 13 13  0  0  1  0  0  0  0  0999 V2000
   -2.3920   -0.6720    1.0010 C   0  0  0  0  0  0  0  0  0  0  0  0
   -2.0450    0.5920    0.2900 C   0  0  2  0  0  0  0  0  0  0  0  0
   -3.2740    1.1320   -0.2880 N   0  0  0  0  0  0  0  0  0  0  0  0
   -1.0720    0.4080   -0.8360 C   0  0  2  0  0  0  0  0  0  0  0  0
   -1.5610   -0.4680   -1.7960 O   0  0  0  0  0  0  0  0  0  0  0  0
    0.2860    0.0330   -0.3800 C   0  0  0  0  0  0  0  0  0  0  0  0
    0.5640   -1.2830   -0.0860 C   0  0  0  0  0  0  0  0  0  0  0  0
    1.8270   -1.6850    0.3470 C   0  0  0  0  0  0  0  0  0  0  0  0
    2.8440   -0.7700    0.4960 C   0  0  0  0  0  0  0  0  0  0  0  0
    4.1160   -1.1740    0.9320 O   0  0  0  0  0  0  0  0  0  0  0  0
    2.5770    0.5490    0.2050 C   0  0  0  0  0  0  0  0  0  0  0  0
    3.6020    1.4660    0.3550 O   0  0  0  0  0  0  0  0  0  0  0  0
    1.3240    0.9360   -0.2230 C   0  0  0  0  0  0  0  0  0  0  0  0
  2  1  1  6
  2  3  1  0
  2  4  1  0
  4  5  1  6
  4  6  1  0
  6  7  2  0
  6 13  1  0
  7  8  1  0
  8  9  2  0
  9 10  1  0
  9 11  1  0
 11 12  1  0
 11 13  2  0
M  CHG  1   3   1
M  END
>  <MODEL>  (1) 
       1

$$$$
../data/sim29_sdf/CHEMBL677.pdb
     RDKit          3D

 13 13  0  0  1  0  0  0  0  0999 V2000
   -2.4690   -1.0270    0.1490 C   0  0  0  0  0  0  0  0  0  0  0  0
   -2.1180    0.4150    0.2150 C   0  0  2  0  0  0  0  0  0  0  0  0
   -1.9650    0.9640   -1.1190 N   0  0  0  0  0  0  0  0  0  0  0  0
   -0.9280    0.7300    1.0740 C   0  0  2  0  0  0  0  0  0  0  0  0
   -0.8400    2.1340    1.1360 O   0  0  0  0  0  0  0  0  0  0  0  0
    0.3290    0.1670    0.6030 C   0  0  0  0  0  0  0  0  0  0  0  0
    0.9010   -0.9230    1.2100 C   0  0  0  0  0  0  0  0  0  0  0  0
    2.0940   -1.4060    0.7140 C   0  0  0  0  0  0  0  0  0  0  0  0
    2.7290   -0.8340   -0.3670 C   0  0  0  0  0  0  0  0  0  0  0  0
    3.9360   -1.3300   -0.8630 O   0  0  0  0  0  0  0  0  0  0  0  0
    2.1690    0.2490   -0.9760 C   0  0  0  0  0  0  0  0  0  0  0  0
    2.8010    0.8480   -2.0810 O   0  0  0  0  0  0  0  0  0  0  0  0
    0.9760    0.7250   -0.4730 C   0  0  0  0  0  0  0  0  0  0  0  0
  2  1  1  6
  2  3  1  0
  2  4  1  0
  4  5  1  6
  4  6  1  0
  6  7  2  0
  6 13  1  0
  7  8  1  0
  8  9  2  0
  9 10  1  0
  9 11  1  0
 11 12  1  0
 11 13  2  0
M  CHG  1   3   1
M  END
>  <MODEL>  (2) 
       2

$$$$
../data/sim29_sdf/CHEMBL155014.pdb
     RDKit          3D

 22 23  0  0  1  0  0  0  0  0999 V2000
   -1.6940   -2.5710   -1.6190 C   0  0  0  0  0  0  0  0  0  0  0  0
   -0.4140   -2.0650   -0.9340 C   0  0  0  0  0  0  0  0  0  0  0  0
   -0.7430   -1.3510    0.3320 C   0  0  2  0  0  0  0  0  0  0  0  0
   -1.6180   -0.1670    0.1040 C   0  0  0  0  0  0  0  0  0  0  0  0
   -1.2220    0.8930   -0.6870 C   0  0  0  0  0  0  0  0  0  0  0  0
   -2.0370    1.9810   -0.8870 C   0  0  0  0  0  0  0  0  0  0  0  0
   -3.2820    2.0560   -0.3060 C   0  0  0  0  0  0  0  0  0  0  0  0
   -4.1570    3.1480   -0.4780 N   0  0  0  0  0  0  0  0  0  0  0  0
   -3.7170    1.0120    0.4960 C   0  0  0  0  0  0  0  0  0  0  0  0
   -4.9820    1.0740    1.0940 O   0  0  0  0  0  0  0  0  0  0  0  0
   -2.8710   -0.0590    0.6710 C   0  0  0  0  0  0  0  0  0  0  0  0
    0.4170   -1.0410    1.2240 C   0  0  1  0  0  0  0  0  0  0  0  0
    1.1190   -2.3020    1.6590 C   0  0  0  0  0  0  0  0  0  0  0  0
    2.2940   -1.9460    2.5690 C   0  0  0  0  0  0  0  0  0  0  0  0
    1.3780   -0.0550    0.6430 C   0  0  0  0  0  0  0  0  0  0  0  0
    1.4390    1.2290    1.1510 C   0  0  0  0  0  0  0  0  0  0  0  0
    2.3260    2.1520    0.6350 C   0  0  0  0  0  0  0  0  0  0  0  0
    3.1880    1.8510   -0.4000 C   0  0  0  0  0  0  0  0  0  0  0  0
    4.1030    2.8060   -0.9310 N   0  0  0  0  0  0  0  0  0  0  0  0
    3.1310    0.5710   -0.9100 C   0  0  0  0  0  0  0  0  0  0  0  0
    3.9940    0.2600   -1.9500 O   0  0  0  0  0  0  0  0  0  0  0  0
    2.2330   -0.3660   -0.3880 C   0  0  0  0  0  0  0  0  0  0  0  0
  1  2  1  0
  3  2  1  6
  3  4  1  0
  3 12  1  0
  4  5  2  0
  4 11  1  0
  5  6  1  0
  6  7  2  0
  7  8  1  0
  7  9  1  0
  9 10  1  0
  9 11  2  0
 12 13  1  6
 12 15  1  0
 13 14  1  0
 15 16  2  0
 15 22  1  0
 16 17  1  0
 17 18  2  0
 18 19  1  0
 18 20  1  0
 20 21  1  0
 20 22  2  0
M  END
>  <MODEL>  (3) 
       1

$$$$
../data/sim29_sdf/CHEMBL155014.pdb
     RDKit          3D

 22 23  0  0  1  0  0  0  0  0999 V2000
    1.5990   -1.7630   -2.3790 C   0  0  0  0  0  0  0  0  0  0  0  0
    0.3090   -1.4140   -1.6810 C   0  0  0  0  0  0  0  0  0  0  0  0
    0.4110   -1.5470   -0.1790 C   0  0  1  0  0  0  0  0  0  0  0  0
    1.4610   -0.6430    0.2950 C   0  0  0  0  0  0  0  0  0  0  0  0
    2.4280   -0.9810    1.2090 C   0  0  0  0  0  0  0  0  0  0  0  0
    3.3920   -0.0800    1.5960 C   0  0  0  0  0  0  0  0  0  0  0  0
    3.4420    1.1940    1.0970 C   0  0  0  0  0  0  0  0  0  0  0  0
    4.4420    2.1400    1.4930 N   0  0  0  0  0  0  0  0  0  0  0  0
    2.4770    1.5450    0.1790 C   0  0  0  0  0  0  0  0  0  0  0  0
    2.5030    2.8410   -0.3480 O   0  0  0  0  0  0  0  0  0  0  0  0
    1.5000    0.6350   -0.2140 C   0  0  0  0  0  0  0  0  0  0  0  0
   -0.9590   -1.3750    0.3900 C   0  0  1  0  0  0  0  0  0  0  0  0
   -1.0390   -1.4890    1.8900 C   0  0  0  0  0  0  0  0  0  0  0  0
   -0.5830   -2.8250    2.4020 C   0  0  0  0  0  0  0  0  0  0  0  0
   -1.7600   -0.2800   -0.1540 C   0  0  0  0  0  0  0  0  0  0  0  0
   -2.6710   -0.4510   -1.2110 C   0  0  0  0  0  0  0  0  0  0  0  0
   -3.4390    0.5430   -1.7190 C   0  0  0  0  0  0  0  0  0  0  0  0
   -3.3640    1.8040   -1.2130 C   0  0  0  0  0  0  0  0  0  0  0  0
   -4.1860    2.8160   -1.7740 N   0  0  0  0  0  0  0  0  0  0  0  0
   -2.4840    2.0380   -0.1690 C   0  0  0  0  0  0  0  0  0  0  0  0
   -2.4150    3.3160    0.3360 O   0  0  0  0  0  0  0  0  0  0  0  0
   -1.7110    1.0180    0.3370 C   0  0  0  0  0  0  0  0  0  0  0  0
  1  2  1  0
  3  2  1  6
  3  4  1  0
  3 12  1  0
  4  5  2  0
  4 11  1  0
  5  6  1  0
  6  7  2  0
  7  8  1  0
  7  9  1  0
  9 10  1  0
  9 11  2  0
 12 13  1  1
 12 15  1  0
 13 14  1  0
 15 16  2  0
 15 22  1  0
 16 17  1  0
 17 18  2  0
 18 19  1  0
 18 20  1  0
 20 21  1  0
 20 22  2  0
M  END
>  <MODEL>  (4) 
       2

$$$$
../data/sim29_sdf/CHEMBL155014.pdb
     RDKit          3D

 22 23  0  0  1  0  0  0  0  0999 V2000
    2.7540   -2.5270   -0.4510 C   0  0  0  0  0  0  0  0  0  0  0  0
    1.4130   -2.2370   -1.1220 C   0  0  0  0  0  0  0  0  0  0  0  0
    0.5940   -1.2810   -0.2530 C   0  0  1  0  0  0  0  0  0  0  0  0
    1.4500   -0.0570   -0.1470 C   0  0  0  0  0  0  0  0  0  0  0  0
    1.7420    0.6610   -1.2670 C   0  0  0  0  0  0  0  0  0  0  0  0
    2.5330    1.7790   -1.1160 C   0  0  0  0  0  0  0  0  0  0  0  0
    3.0320    2.1870    0.1190 C   0  0  0  0  0  0  0  0  0  0  0  0
    3.8430    3.3450    0.2320 N   0  0  0  0  0  0  0  0  0  0  0  0
    2.7250    1.4440    1.2470 C   0  0  0  0  0  0  0  0  0  0  0  0
    3.2230    1.8540    2.4720 O   0  0  0  0  0  0  0  0  0  0  0  0
    1.9200    0.3080    1.0930 C   0  0  0  0  0  0  0  0  0  0  0  0
   -0.6900   -1.0160   -0.9230 C   0  0  1  0  0  0  0  0  0  0  0  0
   -1.4750   -2.2830   -1.1310 C   0  0  0  0  0  0  0  0  0  0  0  0
   -1.8270   -3.0290    0.1120 C   0  0  0  0  0  0  0  0  0  0  0  0
   -1.5760   -0.0560   -0.2440 C   0  0  0  0  0  0  0  0  0  0  0  0
   -2.1180    0.9570   -1.0060 C   0  0  0  0  0  0  0  0  0  0  0  0
   -2.9560    1.9110   -0.4560 C   0  0  0  0  0  0  0  0  0  0  0  0
   -3.2730    1.8640    0.9000 C   0  0  0  0  0  0  0  0  0  0  0  0
   -4.1190    2.8020    1.5210 N   0  0  0  0  0  0  0  0  0  0  0  0
   -2.7290    0.8480    1.6640 C   0  0  0  0  0  0  0  0  0  0  0  0
   -2.9880    0.7200    3.0240 O   0  0  0  0  0  0  0  0  0  0  0  0
   -1.8970   -0.0870    1.0860 C   0  0  0  0  0  0  0  0  0  0  0  0
  1  2  1  0
  3  2  1  6
  3  4  1  0
  3 12  1  0
  4  5  2  0
  4 11  1  0
  5  6  1  0
  6  7  2  0
  7  8  1  0
  7  9  1  0
  9 10  1  0
  9 11  2  0
 12 13  1  1
 12 15  1  0
 13 14  1  0
 15 16  2  0
 15 22  1  0
 16 17  1  0
 17 18  2  0
 18 19  1  0
 18 20  1  0
 20 21  1  0
 20 22  2  0
M  END
>  <MODEL>  (5) 
       3

$$$$
../data/sim29_sdf/CHEMBL2062273.pdb
     RDKit          3D

 12 12  0  0  1  0  0  0  0  0999 V2000
   -2.5320    0.6730   -1.2080 N   0  0  0  0  0  0  0  0  0  0  0  0
   -2.5980    0.0330    0.0870 C   0  0  0  0  0  0  0  0  0  0  0  0
   -1.4880   -0.9500    0.2470 C   0  0  1  0  0  0  0  0  0  0  0  0
   -1.5290   -1.9410   -0.7030 O   0  0  0  0  0  0  0  0  0  0  0  0
   -0.1540   -0.3210    0.2370 C   0  0  0  0  0  0  0  0  0  0  0  0
    0.0310    1.0260    0.2770 C   0  0  0  0  0  0  0  0  0  0  0  0
    1.2950    1.6090    0.2660 C   0  0  0  0  0  0  0  0  0  0  0  0
    2.4100    0.8010    0.2140 C   0  0  0  0  0  0  0  0  0  0  0  0
    3.7020    1.3590    0.2020 O   0  0  0  0  0  0  0  0  0  0  0  0
    2.2420   -0.5680    0.1730 C   0  0  0  0  0  0  0  0  0  0  0  0
    3.3910   -1.3770    0.1190 O   0  0  0  0  0  0  0  0  0  0  0  0
    0.9740   -1.1210    0.1840 C   0  0  0  0  0  0  0  0  0  0  0  0
  1  2  1  0
  2  3  1  0
  3  4  1  6
  3  5  1  0
  5  6  2  0
  5 12  1  0
  6  7  1  0
  7  8  2  0
  8  9  1  0
  8 10  1  0
 10 11  1  0
 10 12  2  0
M  CHG  1   1   1
M  END
$$$$
../data/sim29_sdf/CHEMBL288787.pdb
     RDKit          3D

 11 11  0  0  1  0  0  0  0  0999 V2000
   -2.7440    0.9300    0.5070 N   0  0  0  0  0  0  0  0  0  0  0  0
   -1.9480    0.4160   -0.5780 C   0  0  2  0  0  0  0  0  0  0  0  0
   -2.6220   -0.7210   -1.0460 O   0  0  0  0  0  0  0  0  0  0  0  0
   -0.5550    0.0970   -0.1630 C   0  0  0  0  0  0  0  0  0  0  0  0
   -0.2830   -0.5820    1.0060 C   0  0  0  0  0  0  0  0  0  0  0  0
    0.9960   -0.8930    1.4190 C   0  0  0  0  0  0  0  0  0  0  0  0
    2.0830   -0.5270    0.6590 C   0  0  0  0  0  0  0  0  0  0  0  0
    3.3930   -0.8200    1.0370 O   0  0  0  0  0  0  0  0  0  0  0  0
    1.8270    0.1530   -0.5130 C   0  0  0  0  0  0  0  0  0  0  0  0
    2.9490    0.5170   -1.2740 O   0  0  0  0  0  0  0  0  0  0  0  0
    0.5430    0.4600   -0.9190 C   0  0  0  0  0  0  0  0  0  0  0  0
  2  1  1  1
  2  3  1  0
  2  4  1  0
  4  5  2  0
  4 11  1  0
  5  6  1  0
  6  7  2  0
  7  8  1  0
  7  9  1  0
  9 10  1  0
  9 11  2  0
M  CHG  1   1   1
M  END
$$$$
../data/sim29_sdf/CHEMBL432.pdb
     RDKit          3D

 12 12  0  0  1  0  0  0  0  0999 V2000
   -2.4470   -0.9970    0.9030 N   0  0  0  0  0  0  0  0  0  0  0  0
   -2.3620   -0.5170   -0.4580 C   0  0  0  0  0  0  0  0  0  0  0  0
   -1.4950    0.7020   -0.5850 C   0  0  2  0  0  0  0  0  0  0  0  0
   -1.5010    1.0590   -1.9510 O   0  0  0  0  0  0  0  0  0  0  0  0
   -0.1020    0.4500   -0.1350 C   0  0  0  0  0  0  0  0  0  0  0  0
    0.3860    0.9490    1.0570 C   0  0  0  0  0  0  0  0  0  0  0  0
    1.6830    0.7160    1.4760 C   0  0  0  0  0  0  0  0  0  0  0  0
    2.5570   -0.0320    0.7180 C   0  0  0  0  0  0  0  0  0  0  0  0
    3.8740   -0.2720    1.1390 O   0  0  0  0  0  0  0  0  0  0  0  0
    2.0780   -0.5330   -0.4730 C   0  0  0  0  0  0  0  0  0  0  0  0
    2.9150   -1.2900   -1.2710 O   0  0  0  0  0  0  0  0  0  0  0  0
    0.7820   -0.2980   -0.8880 C   0  0  0  0  0  0  0  0  0  0  0  0
  1  2  1  0
  2  3  1  0
  3  4  1  6
  3  5  1  0
  5  6  2  0
  5 12  1  0
  6  7  1  0
  7  8  2  0
  8  9  1  0
  8 10  1  0
 10 11  1  0
 10 12  2  0
M  CHG  1   1   1
M  END
>  <MODEL>  (8) 
       1

$$$$
../data/sim29_sdf/CHEMBL432.pdb
     RDKit          3D

 12 12  0  0  1  0  0  0  0  0999 V2000
    2.2400    1.2680   -0.5680 N   0  0  0  0  0  0  0  0  0  0  0  0
    2.4690   -0.1650   -0.5450 C   0  0  0  0  0  0  0  0  0  0  0  0
    1.5670   -0.7850    0.5000 C   0  0  2  0  0  0  0  0  0  0  0  0
    1.7540   -2.1650    0.5570 O   0  0  0  0  0  0  0  0  0  0  0  0
    0.1270   -0.4620    0.2330 C   0  0  0  0  0  0  0  0  0  0  0  0
   -0.5860   -1.1410   -0.7330 C   0  0  0  0  0  0  0  0  0  0  0  0
   -1.9200   -0.8530   -0.9920 C   0  0  0  0  0  0  0  0  0  0  0  0
   -2.5800    0.1300   -0.2840 C   0  0  0  0  0  0  0  0  0  0  0  0
   -3.9210    0.4110   -0.5520 O   0  0  0  0  0  0  0  0  0  0  0  0
   -1.8710    0.8120    0.6830 C   0  0  0  0  0  0  0  0  0  0  0  0
   -2.5370    1.8060    1.4010 O   0  0  0  0  0  0  0  0  0  0  0  0
   -0.5460    0.5190    0.9340 C   0  0  0  0  0  0  0  0  0  0  0  0
  1  2  1  0
  2  3  1  0
  3  4  1  6
  3  5  1  0
  5  6  2  0
  5 12  1  0
  6  7  1  0
  7  8  2  0
  8  9  1  0
  8 10  1  0
 10 11  1  0
 10 12  2  0
M  CHG  1   1   1
M  END
>  <MODEL>  (9) 
       2

$$$$
../data/sim29_sdf/CHEMBL2062274.pdb
     RDKit          3D

 12 12  0  0  1  0  0  0  0  0999 V2000
    3.7420    0.6280   -0.1510 N   0  0  0  0  0  0  0  0  0  0  0  0
    2.4520    0.1580    0.3770 C   0  0  0  0  0  0  0  0  0  0  0  0
    1.3370    0.5010   -0.5840 C   0  0  1  0  0  0  0  0  0  0  0  0
    1.5640   -0.1040   -1.8290 O   0  0  0  0  0  0  0  0  0  0  0  0
    0.0140    0.1030   -0.0820 C   0  0  0  0  0  0  0  0  0  0  0  0
   -0.1930   -0.2950    1.2220 C   0  0  0  0  0  0  0  0  0  0  0  0
   -1.4620   -0.6710    1.6770 C   0  0  0  0  0  0  0  0  0  0  0  0
   -2.5540   -0.6560    0.8370 C   0  0  0  0  0  0  0  0  0  0  0  0
   -3.8040   -1.0340    1.3180 O   0  0  0  0  0  0  0  0  0  0  0  0
   -2.3480   -0.2580   -0.4650 C   0  0  0  0  0  0  0  0  0  0  0  0
   -3.4450   -0.2430   -1.3100 O   0  0  0  0  0  0  0  0  0  0  0  0
   -1.0990    0.1110   -0.9140 C   0  0  0  0  0  0  0  0  0  0  0  0
  1  2  1  0
  2  3  1  0
  3  4  1  6
  3  5  1  0
  5  6  2  0
  5 12  1  0
  6  7  1  0
  7  8  2  0
  8  9  1  0
  8 10  1  0
 10 11  1  0
 10 12  2  0
M  CHG  1   1   1
M  END
$$$$
../data/sim29_sdf/CHEMBL1320902.pdb
     RDKit          3D

 13 13  0  0  1  0  0  0  0  0999 V2000
   -3.4460    0.6490    0.0960 C   0  0  0  0  0  0  0  0  0  0  0  0
   -1.9740    0.5190    0.4200 C   0  0  1  0  0  0  0  0  0  0  0  0
   -1.8650   -0.5430    1.4160 N   0  0  0  0  0  0  0  0  0  0  0  0
   -1.1720    0.1920   -0.8290 C   0  0  2  0  0  0  0  0  0  0  0  0
   -1.6010   -0.9840   -1.4370 O   0  0  0  0  0  0  0  0  0  0  0  0
    0.2780    0.2000   -0.5340 C   0  0  0  0  0  0  0  0  0  0  0  0
    1.1050    1.2710   -0.7920 C   0  0  0  0  0  0  0  0  0  0  0  0
    2.4530    1.2300   -0.4970 C   0  0  0  0  0  0  0  0  0  0  0  0
    2.9980    0.1060    0.0640 C   0  0  0  0  0  0  0  0  0  0  0  0
    4.3670    0.0240    0.3780 O   0  0  0  0  0  0  0  0  0  0  0  0
    2.1990   -0.9810    0.3340 C   0  0  0  0  0  0  0  0  0  0  0  0
    2.7760   -2.1130    0.9050 O   0  0  0  0  0  0  0  0  0  0  0  0
    0.8350   -0.9250    0.0310 C   0  0  0  0  0  0  0  0  0  0  0  0
  2  1  1  6
  2  3  1  0
  2  4  1  0
  4  5  1  1
  4  6  1  0
  6  7  2  0
  6 13  1  0
  7  8  1  0
  8  9  2  0
  9 10  1  0
  9 11  1  0
 11 12  1  0
 11 13  2  0
M  CHG  1   3   1
M  END
>  <MODEL>  (11) 
       1

$$$$
../data/sim29_sdf/CHEMBL1320902.pdb
     RDKit          3D

 13 13  0  0  1  0  0  0  0  0999 V2000
    2.2110   -1.2360    0.5380 C   0  0  0  0  0  0  0  0  0  0  0  0
    2.2680    0.1250   -0.1310 C   0  0  2  0  0  0  0  0  0  0  0  0
    2.3200    1.1210    0.8880 N   0  0  0  0  0  0  0  0  0  0  0  0
    1.1540    0.3120   -1.1200 C   0  0  2  0  0  0  0  0  0  0  0  0
    1.3390    1.5500   -1.7340 O   0  0  0  0  0  0  0  0  0  0  0  0
   -0.1830    0.1570   -0.5410 C   0  0  0  0  0  0  0  0  0  0  0  0
   -0.7350    1.1770    0.1970 C   0  0  0  0  0  0  0  0  0  0  0  0
   -2.0110    1.0490    0.7580 C   0  0  0  0  0  0  0  0  0  0  0  0
   -2.7470   -0.1030    0.5870 C   0  0  0  0  0  0  0  0  0  0  0  0
   -4.0230   -0.2750    1.1280 O   0  0  0  0  0  0  0  0  0  0  0  0
   -2.1980   -1.1200   -0.1480 C   0  0  0  0  0  0  0  0  0  0  0  0
   -2.9040   -2.2930   -0.3440 O   0  0  0  0  0  0  0  0  0  0  0  0
   -0.9410   -0.9820   -0.6960 C   0  0  0  0  0  0  0  0  0  0  0  0
  2  1  1  1
  2  3  1  0
  2  4  1  0
  4  5  1  1
  4  6  1  0
  6  7  2  0
  6 13  1  0
  7  8  1  0
  8  9  2  0
  9 10  1  0
  9 11  1  0
 11 12  1  0
 11 13  2  0
M  CHG  1   3   1
M  END
>  <MODEL>  (12) 
       2

$$$$
../data/sim29_sdf/CHEMBL764.pdb
     RDKit          3D

 13 13  0  0  1  0  0  0  0  0999 V2000
   -3.4180   -0.1530   -0.1080 C   0  0  0  0  0  0  0  0  0  0  0  0
   -1.9420   -0.3040    0.1460 C   0  0  2  0  0  0  0  0  0  0  0  0
   -1.6280    0.3090    1.4290 N   0  0  0  0  0  0  0  0  0  0  0  0
   -1.1130    0.3880   -0.9250 C   0  0  1  0  0  0  0  0  0  0  0  0
   -1.4090    1.7500   -0.9740 O   0  0  0  0  0  0  0  0  0  0  0  0
    0.3280    0.1600   -0.5570 C   0  0  0  0  0  0  0  0  0  0  0  0
    0.8980    0.8710    0.4760 C   0  0  0  0  0  0  0  0  0  0  0  0
    2.2280    0.6430    0.7960 C   0  0  0  0  0  0  0  0  0  0  0  0
    3.0130   -0.2690    0.1260 C   0  0  0  0  0  0  0  0  0  0  0  0
    4.3400   -0.5220    0.4180 O   0  0  0  0  0  0  0  0  0  0  0  0
    2.3870   -0.9660   -0.9150 C   0  0  0  0  0  0  0  0  0  0  0  0
    3.1470   -1.8870   -1.6060 O   0  0  0  0  0  0  0  0  0  0  0  0
    1.0840   -0.7600   -1.2490 C   0  0  0  0  0  0  0  0  0  0  0  0
  2  1  1  6
  2  3  1  0
  2  4  1  0
  4  5  1  1
  4  6  1  0
  6  7  2  0
  6 13  1  0
  7  8  1  0
  8  9  2  0
  9 10  1  0
  9 11  1  0
 11 12  1  0
 11 13  2  0
M  CHG  1   3   1
M  END
>  <MODEL>  (13) 
       1

$$$$
../data/sim29_sdf/CHEMBL764.pdb
     RDKit          3D

 13 13  0  0  1  0  0  0  0  0999 V2000
    2.1180   -1.3360    0.0140 C   0  0  0  0  0  0  0  0  0  0  0  0
    2.1480    0.0630    0.5280 C   0  0  1  0  0  0  0  0  0  0  0  0
    3.4800    0.6230    0.2990 N   0  0  0  0  0  0  0  0  0  0  0  0
    1.1720    0.9880   -0.1510 C   0  0  2  0  0  0  0  0  0  0  0  0
    1.3340    2.2500    0.4560 O   0  0  0  0  0  0  0  0  0  0  0  0
   -0.2320    0.5120   -0.0400 C   0  0  0  0  0  0  0  0  0  0  0  0
   -0.9310    0.6080    1.1440 C   0  0  0  0  0  0  0  0  0  0  0  0
   -2.2350    0.1730    1.2710 C   0  0  0  0  0  0  0  0  0  0  0  0
   -2.9090   -0.3850    0.2030 C   0  0  0  0  0  0  0  0  0  0  0  0
   -4.2310   -0.8290    0.3220 O   0  0  0  0  0  0  0  0  0  0  0  0
   -2.2200   -0.4850   -0.9840 C   0  0  0  0  0  0  0  0  0  0  0  0
   -2.8640   -1.0390   -2.0730 O   0  0  0  0  0  0  0  0  0  0  0  0
   -0.9190   -0.0500   -1.1050 C   0  0  0  0  0  0  0  0  0  0  0  0
  2  1  1  6
  2  3  1  0
  2  4  1  0
  4  5  1  1
  4  6  1  0
  6  7  2  0
  6 13  1  0
  7  8  1  0
  8  9  2  0
  9 10  1  0
  9 11  1  0
 11 12  1  0
 11 13  2  0
M  CHG  1   3   1
M  END
>  <MODEL>  (14) 
       2

$$$$
../data/sim29_sdf/CHEMBL1434513.pdb
     RDKit          3D

 12 12  0  0  1  0  0  0  0  0999 V2000
   -3.6740    0.7230    0.0680 N   0  0  0  0  0  0  0  0  0  0  0  0
   -2.3290    0.3570    0.4730 C   0  0  0  0  0  0  0  0  0  0  0  0
   -1.4700    0.3290   -0.7520 C   0  0  2  0  0  0  0  0  0  0  0  0
   -1.9560   -0.6000   -1.6620 O   0  0  0  0  0  0  0  0  0  0  0  0
   -0.0460    0.1120   -0.4740 C   0  0  0  0  0  0  0  0  0  0  0  0
    0.7850   -0.1250   -1.5560 C   0  0  0  0  0  0  0  0  0  0  0  0
    2.1260   -0.3410   -1.4310 C   0  0  0  0  0  0  0  0  0  0  0  0
    2.6730   -0.3190   -0.1430 C   0  0  0  0  0  0  0  0  0  0  0  0
    4.0240   -0.5400   -0.0560 O   0  0  0  0  0  0  0  0  0  0  0  0
    1.8790   -0.0860    0.9600 C   0  0  0  0  0  0  0  0  0  0  0  0
    2.4350   -0.0660    2.2410 O   0  0  0  0  0  0  0  0  0  0  0  0
    0.5290    0.1260    0.7680 C   0  0  0  0  0  0  0  0  0  0  0  0
  1  2  1  0
  2  3  1  0
  3  4  1  6
  3  5  1  0
  5  6  2  0
  5 12  1  0
  6  7  1  0
  7  8  2  0
  8  9  1  0
  8 10  1  0
 10 11  1  0
 10 12  2  0
M  CHG  1   1   1
M  END
$$$$
../data/sim29_sdf/CHEMBL1734806.pdb
     RDKit          3D

 12 12  0  0  1  0  0  0  0  0999 V2000
   -3.5990    0.7700    0.0300 N   0  0  0  0  0  0  0  0  0  0  0  0
   -2.1270    0.8490    0.0520 C   0  0  0  0  0  0  0  0  0  0  0  0
   -1.5500   -0.5370    0.1850 C   0  0  1  0  0  0  0  0  0  0  0  0
   -2.0210   -1.2540   -0.9420 O   0  0  0  0  0  0  0  0  0  0  0  0
   -0.0560   -0.4190    0.1060 C   0  0  0  0  0  0  0  0  0  0  0  0
    0.6200   -1.5830   -0.2270 C   0  0  0  0  0  0  0  0  0  0  0  0
    1.9900   -1.5090   -0.3090 C   0  0  0  0  0  0  0  0  0  0  0  0
    2.6790   -0.3090   -0.0660 C   0  0  0  0  0  0  0  0  0  0  0  0
    4.0650   -0.3140   -0.1690 O   0  0  0  0  0  0  0  0  0  0  0  0
    1.9870    0.8350    0.2630 C   0  0  0  0  0  0  0  0  0  0  0  0
    2.6350    2.0370    0.5080 O   0  0  0  0  0  0  0  0  0  0  0  0
    0.5910    0.7650    0.3470 C   0  0  0  0  0  0  0  0  0  0  0  0
  1  2  1  0
  2  3  1  0
  3  4  1  6
  3  5  1  0
  5  6  2  0
  5 12  1  0
  6  7  1  0
  7  8  2  0
  8  9  1  0
  8 10  1  0
 10 11  1  0
 10 12  2  0
M  CHG  1   1   1
M  END
$$$$
../data/sim29_sdf/CHEMBL1356607.pdb
     RDKit          3D

 12 12  0  0  1  0  0  0  0  0999 V2000
    3.7560   -0.2640   -0.4330 N   0  0  0  0  0  0  0  0  0  0  0  0
    2.3820   -0.6570   -0.1460 C   0  0  0  0  0  0  0  0  0  0  0  0
    1.5160    0.5410   -0.4720 C   0  0  2  0  0  0  0  0  0  0  0  0
    1.9200    1.6180    0.3350 O   0  0  0  0  0  0  0  0  0  0  0  0
    0.0740    0.2530   -0.3080 C   0  0  0  0  0  0  0  0  0  0  0  0
   -0.7310    0.0210   -1.4000 C   0  0  0  0  0  0  0  0  0  0  0  0
   -2.0940   -0.2520   -1.2650 C   0  0  0  0  0  0  0  0  0  0  0  0
   -2.6680   -0.2950   -0.0110 C   0  0  0  0  0  0  0  0  0  0  0  0
   -4.0280   -0.5640    0.1840 O   0  0  0  0  0  0  0  0  0  0  0  0
   -1.8640   -0.0630    1.0750 C   0  0  0  0  0  0  0  0  0  0  0  0
   -2.4420   -0.1060    2.3470 O   0  0  0  0  0  0  0  0  0  0  0  0
   -0.5110    0.2080    0.9400 C   0  0  0  0  0  0  0  0  0  0  0  0
  1  2  1  0
  2  3  1  0
  3  4  1  1
  3  5  1  0
  5  6  2  0
  5 12  1  0
  6  7  1  0
  7  8  2  0
  8  9  1  0
  8 10  1  0
 10 11  1  0
 10 12  2  0
M  CHG  1   1   1
M  END
$$$$
../data/sim29_sdf/CHEMBL1545498.pdb
     RDKit          3D

 11 11  0  0  0  0  0  0  0  0999 V2000
    2.3420   -0.8210   -1.3730 C   0  0  0  0  0  0  0  0  0  0  0  0
    1.8100   -0.3680   -0.0270 C   0  0  0  0  0  0  0  0  0  0  0  0
    2.5950    0.8180    0.5000 C   0  0  0  0  0  0  0  0  0  0  0  0
    0.3740   -0.0370   -0.2210 C   0  0  0  0  0  0  0  0  0  0  0  0
    0.0040    0.9850   -1.0960 C   0  0  0  0  0  0  0  0  0  0  0  0
   -1.3290    1.2920   -1.2770 C   0  0  0  0  0  0  0  0  0  0  0  0
   -2.2820    0.5780   -0.5830 C   0  0  0  0  0  0  0  0  0  0  0  0
   -3.5990    0.9140   -0.7900 O   0  0  0  0  0  0  0  0  0  0  0  0
   -1.9390   -0.4520    0.3020 C   0  0  0  0  0  0  0  0  0  0  0  0
   -2.9620   -1.1540    0.9890 N   0  0  0  0  0  0  0  0  0  0  0  0
   -0.5980   -0.7370    0.4620 C   0  0  0  0  0  0  0  0  0  0  0  0
  1  2  1  0
  2  3  1  0
  2  4  1  0
  4  5  2  0
  4 11  1  0
  5  6  1  0
  6  7  2  0
  7  8  1  0
  7  9  1  0
  9 10  1  0
  9 11  2  0
M  END
$$$$
../data/sim29_sdf/CHEMBL2130595.pdb
     RDKit          3D

 12 12  0  0  1  0  0  0  0  0999 V2000
   -2.2930    1.1690    0.6920 N   0  0  0  0  0  0  0  0  0  0  0  0
   -2.2480    1.0040   -0.7280 C   0  0  0  0  0  0  0  0  0  0  0  0
   -1.5650   -0.2870   -1.1070 C   0  0  2  0  0  0  0  0  0  0  0  0
   -2.2760   -1.3480   -0.5500 O   0  0  0  0  0  0  0  0  0  0  0  0
   -0.1760   -0.3620   -0.5920 C   0  0  0  0  0  0  0  0  0  0  0  0
    0.4390   -1.5780   -0.5780 C   0  0  0  0  0  0  0  0  0  0  0  0
    1.7150   -1.7240   -0.1180 C   0  0  0  0  0  0  0  0  0  0  0  0
    2.3810   -0.5850    0.3410 C   0  0  0  0  0  0  0  0  0  0  0  0
    3.6680   -0.7310    0.8040 O   0  0  0  0  0  0  0  0  0  0  0  0
    1.7750    0.6450    0.3320 C   0  0  0  0  0  0  0  0  0  0  0  0
    2.3950    1.7800    0.7740 O   0  0  0  0  0  0  0  0  0  0  0  0
    0.4830    0.7330   -0.1440 C   0  0  0  0  0  0  0  0  0  0  0  0
  1  2  1  0
  2  3  1  0
  3  4  1  1
  3  5  1  0
  5  6  2  0
  5 12  1  0
  6  7  1  0
  7  8  2  0
  8  9  1  0
  8 10  1  0
 10 11  1  0
 10 12  2  0
M  CHG  1   1   1
M  END
$$$$
../data/sim29_sdf/CHEMBL18824.pdb
     RDKit          3D

 12 12  0  0  1  0  0  0  0  0999 V2000
   -2.3460    1.4890    0.2850 N   0  0  0  0  0  0  0  0  0  0  0  0
   -2.4710    0.1850   -0.3000 C   0  0  0  0  0  0  0  0  0  0  0  0
   -1.5190   -0.8300    0.2040 C   0  0  1  0  0  0  0  0  0  0  0  0
   -1.7910   -2.0670   -0.4380 O   0  0  0  0  0  0  0  0  0  0  0  0
   -0.0870   -0.5100    0.0820 C   0  0  0  0  0  0  0  0  0  0  0  0
    0.8540   -1.4690    0.4300 C   0  0  0  0  0  0  0  0  0  0  0  0
    2.2050   -1.2410    0.3310 C   0  0  0  0  0  0  0  0  0  0  0  0
    2.6480   -0.0380   -0.1220 C   0  0  0  0  0  0  0  0  0  0  0  0
    4.0170    0.1980   -0.2250 O   0  0  0  0  0  0  0  0  0  0  0  0
    1.7660    0.9320   -0.4750 C   0  0  0  0  0  0  0  0  0  0  0  0
    2.2020    2.1730   -0.9420 O   0  0  0  0  0  0  0  0  0  0  0  0
    0.3830    0.6930   -0.3710 C   0  0  0  0  0  0  0  0  0  0  0  0
  1  2  1  0
  2  3  1  0
  3  4  1  6
  3  5  1  0
  5  6  2  0
  5 12  1  0
  6  7  1  0
  7  8  2  0
  8  9  1  0
  8 10  1  0
 10 11  1  0
 10 12  2  0
M  CHG  1   1   1
M  END
>  <MODEL>  (20) 
       1

$$$$
../data/sim29_sdf/CHEMBL18824.pdb
     RDKit          3D

 12 12  0  0  1  0  0  0  0  0999 V2000
   -3.7570    0.3730    0.5480 N   0  0  0  0  0  0  0  0  0  0  0  0
   -2.5160   -0.2780    0.1160 C   0  0  0  0  0  0  0  0  0  0  0  0
   -1.3870    0.5930    0.5810 C   0  0  1  0  0  0  0  0  0  0  0  0
   -1.4390    0.6990    1.9600 O   0  0  0  0  0  0  0  0  0  0  0  0
   -0.0620    0.1150    0.1380 C   0  0  0  0  0  0  0  0  0  0  0  0
    0.1320   -0.8620   -0.8120 C   0  0  0  0  0  0  0  0  0  0  0  0
    1.4170   -1.2680   -1.1860 C   0  0  0  0  0  0  0  0  0  0  0  0
    2.5080   -0.6740   -0.5860 C   0  0  0  0  0  0  0  0  0  0  0  0
    3.7860   -1.0760   -0.9570 O   0  0  0  0  0  0  0  0  0  0  0  0
    2.3420    0.3030    0.3640 C   0  0  0  0  0  0  0  0  0  0  0  0
    3.4800    0.8650    0.9320 O   0  0  0  0  0  0  0  0  0  0  0  0
    1.0610    0.6780    0.7070 C   0  0  0  0  0  0  0  0  0  0  0  0
  1  2  1  0
  2  3  1  0
  3  4  1  1
  3  5  1  0
  5  6  2  0
  5 12  1  0
  6  7  1  0
  7  8  2  0
  8  9  1  0
  8 10  1  0
 10 11  1  0
 10 12  2  0
M  CHG  1   1   1
M  END
>  <MODEL>  (21) 
       2

$$$$
../data/sim29_sdf/CHEMBL85811.pdb
     RDKit          3D

 16 17  0  0  0  0  0  0  0  0999 V2000
    4.8920    0.1110    0.2420 N   0  0  0  0  0  0  0  0  0  0  0  0
    3.4780    0.0640    0.2140 C   0  0  0  0  0  0  0  0  0  0  0  0
    2.7970   -0.6750    1.1440 C   0  0  0  0  0  0  0  0  0  0  0  0
    1.4210   -0.6910    1.0760 C   0  0  0  0  0  0  0  0  0  0  0  0
    0.6890   -0.0080    0.1290 C   0  0  0  0  0  0  0  0  0  0  0  0
   -0.7740   -0.0760    0.1280 C   0  0  0  0  0  0  0  0  0  0  0  0
   -1.4420   -0.2120    1.3260 C   0  0  0  0  0  0  0  0  0  0  0  0
   -2.8250   -0.2850    1.3960 C   0  0  0  0  0  0  0  0  0  0  0  0
   -3.5930   -0.2240    0.2540 C   0  0  0  0  0  0  0  0  0  0  0  0
   -5.0120   -0.2930    0.2610 N   0  0  0  0  0  0  0  0  0  0  0  0
   -2.9270   -0.0870   -0.9620 C   0  0  0  0  0  0  0  0  0  0  0  0
   -3.7050   -0.0260   -2.1090 O   0  0  0  0  0  0  0  0  0  0  0  0
   -1.5350   -0.0140   -1.0170 C   0  0  0  0  0  0  0  0  0  0  0  0
    1.3910    0.7350   -0.8060 C   0  0  0  0  0  0  0  0  0  0  0  0
    2.7810    0.7670   -0.7580 C   0  0  0  0  0  0  0  0  0  0  0  0
    3.4960    1.5050   -1.6870 O   0  0  0  0  0  0  0  0  0  0  0  0
  1  2  1  0
  2  3  2  0
  2 15  1  0
  3  4  1  0
  4  5  2  0
  5  6  1  0
  5 14  1  0
  6  7  2  0
  6 13  1  0
  7  8  1  0
  8  9  2  0
  9 10  1  0
  9 11  1  0
 11 12  1  0
 11 13  2  0
 14 15  2  0
 15 16  1  0
M  END
>  <MODEL>  (22) 
       1

$$$$
../data/sim29_sdf/CHEMBL85811.pdb
     RDKit          3D

 16 17  0  0  0  0  0  0  0  0999 V2000
   -4.8890    0.1980   -0.5780 N   0  0  0  0  0  0  0  0  0  0  0  0
   -3.4680    0.1370   -0.4960 C   0  0  0  0  0  0  0  0  0  0  0  0
   -2.7530    1.2490   -0.1490 C   0  0  0  0  0  0  0  0  0  0  0  0
   -1.3840    1.1830   -0.0720 C   0  0  0  0  0  0  0  0  0  0  0  0
   -0.6550    0.0400   -0.3280 C   0  0  0  0  0  0  0  0  0  0  0  0
    0.7940   -0.0070   -0.2390 C   0  0  0  0  0  0  0  0  0  0  0  0
    1.4770   -0.8560   -1.0600 C   0  0  0  0  0  0  0  0  0  0  0  0
    2.8670   -0.9300   -1.0050 C   0  0  0  0  0  0  0  0  0  0  0  0
    3.5810   -0.1330   -0.1050 C   0  0  0  0  0  0  0  0  0  0  0  0
    4.9890   -0.2110   -0.0510 N   0  0  0  0  0  0  0  0  0  0  0  0
    2.8860    0.7240    0.7220 C   0  0  0  0  0  0  0  0  0  0  0  0
    3.6100    1.5070    1.6090 O   0  0  0  0  0  0  0  0  0  0  0  0
    1.5000    0.7720    0.6410 C   0  0  0  0  0  0  0  0  0  0  0  0
   -1.4020   -1.0870   -0.6810 C   0  0  0  0  0  0  0  0  0  0  0  0
   -2.7810   -1.0280   -0.7600 C   0  0  0  0  0  0  0  0  0  0  0  0
   -3.4760   -2.1860   -1.1180 O   0  0  0  0  0  0  0  0  0  0  0  0
  1  2  1  0
  2  3  2  0
  2 15  1  0
  3  4  1  0
  4  5  2  0
  5  6  1  0
  5 14  1  0
  6  7  2  0
  6 13  1  0
  7  8  1  0
  8  9  2  0
  9 10  1  0
  9 11  1  0
 11 12  1  0
 11 13  2  0
 14 15  2  0
 15 16  1  0
M  END
>  <MODEL>  (23) 
       2

$$$$
../data/sim29_sdf/CHEMBL2074780.pdb
     RDKit          3D

 13 13  0  0  1  0  0  0  0  0999 V2000
    3.1440    1.3620   -1.2330 O   0  0  0  0  0  0  0  0  0  0  0  0
    2.5450    0.8080   -0.2520 C   0  0  0  0  0  0  0  0  0  0  0  0
    2.6390    1.4820    0.9770 O   0  0  0  0  0  0  0  0  0  0  0  0
    1.8310   -0.4420   -0.4630 C   0  0  2  0  0  0  0  0  0  0  0  0
    2.0470   -0.8710   -1.7780 O   0  0  0  0  0  0  0  0  0  0  0  0
    0.3970   -0.3240   -0.1700 C   0  0  0  0  0  0  0  0  0  0  0  0
   -0.4350   -1.3860   -0.5310 C   0  0  0  0  0  0  0  0  0  0  0  0
   -1.7820   -1.3600   -0.3010 C   0  0  0  0  0  0  0  0  0  0  0  0
   -2.3410   -0.2630    0.3020 C   0  0  0  0  0  0  0  0  0  0  0  0
   -3.7080   -0.2170    0.5440 O   0  0  0  0  0  0  0  0  0  0  0  0
   -1.5500    0.8000    0.6700 C   0  0  0  0  0  0  0  0  0  0  0  0
   -2.1580    1.8810    1.2730 O   0  0  0  0  0  0  0  0  0  0  0  0
   -0.1810    0.7650    0.4320 C   0  0  0  0  0  0  0  0  0  0  0  0
  1  2  2  0
  2  3  1  0
  2  4  1  0
  4  5  1  6
  4  6  1  0
  6  7  2  0
  6 13  1  0
  7  8  1  0
  8  9  2  0
  9 10  1  0
  9 11  1  0
 11 12  1  0
 11 13  2  0
M  END
$$$$
../data/sim29_sdf/CHEMBL164989.pdb
     RDKit          3D

 11 11  0  0  0  0  0  0  0  0999 V2000
   -2.7020    0.6950   -0.1340 N   0  0  0  0  0  0  0  0  0  0  0  0
   -1.3180    0.4260   -0.0820 C   0  0  0  0  0  0  0  0  0  0  0  0
   -0.3800    1.4270   -0.2680 C   0  0  0  0  0  0  0  0  0  0  0  0
    0.9790    1.2050   -0.2240 C   0  0  0  0  0  0  0  0  0  0  0  0
    1.4850   -0.0620    0.0130 C   0  0  0  0  0  0  0  0  0  0  0  0
    2.8720   -0.3080    0.0610 N   0  0  0  0  0  0  0  0  0  0  0  0
    3.2890   -1.4460    0.2750 O   0  0  0  0  0  0  0  0  0  0  0  0
    3.7460    0.7140   -0.1290 O   0  0  0  0  0  0  0  0  0  0  0  0
    0.5500   -1.0740    0.2010 C   0  0  0  0  0  0  0  0  0  0  0  0
   -0.8100   -0.8470    0.1570 C   0  0  0  0  0  0  0  0  0  0  0  0
   -1.7410   -1.8580    0.3450 O   0  0  0  0  0  0  0  0  0  0  0  0
  1  2  1  0
  2  3  2  0
  2 10  1  0
  3  4  1  0
  4  5  2  0
  5  6  1  0
  5  9  1  0
  6  7  2  0
  6  8  1  0
  9 10  2  0
 10 11  1  0
M  CHG  2   6   1   8  -1
M  END
$$$$
../data/sim29_sdf/CHEMBL2311152.pdb
     RDKit          3D

 12 12  0  0  1  0  0  0  0  0999 V2000
   -1.5100   -0.2780    0.4020 C   0  0  1  0  0  0  0  0  0  0  0  0
   -1.9990    0.0520    1.6640 O   0  0  0  0  0  0  0  0  0  0  0  0
   -2.3040    0.4000   -0.6900 C   0  0  0  0  0  0  0  0  0  0  0  0
   -3.7010    0.0120   -0.6490 N   0  0  0  0  0  0  0  0  0  0  0  0
   -0.0530   -0.0240    0.2690 C   0  0  0  0  0  0  0  0  0  0  0  0
    0.5120    1.1510    0.7310 C   0  0  0  0  0  0  0  0  0  0  0  0
    1.8670    1.3970    0.6130 C   0  0  0  0  0  0  0  0  0  0  0  0
    2.7210    0.4870    0.0300 C   0  0  0  0  0  0  0  0  0  0  0  0
    4.0930    0.7350   -0.0910 O   0  0  0  0  0  0  0  0  0  0  0  0
    2.1670   -0.6870   -0.4330 C   0  0  0  0  0  0  0  0  0  0  0  0
    3.0480   -1.5960   -1.0210 O   0  0  0  0  0  0  0  0  0  0  0  0
    0.8140   -0.9270   -0.3120 C   0  0  0  0  0  0  0  0  0  0  0  0
  1  2  1  1
  1  3  1  0
  1  5  1  0
  3  4  1  0
  5  6  2  0
  5 12  1  0
  6  7  1  0
  7  8  2  0
  8  9  1  0
  8 10  1  0
 10 11  1  0
 10 12  2  0
M  CHG  1   4   1
M  END
>  <MODEL>  (26) 
       1

$$$$
../data/sim29_sdf/CHEMBL2311152.pdb
     RDKit          3D

 12 12  0  0  1  0  0  0  0  0999 V2000
   -1.8310    0.3180   -0.1550 C   0  0  1  0  0  0  0  0  0  0  0  0
   -2.3650   -0.6940   -0.9630 O   0  0  0  0  0  0  0  0  0  0  0  0
   -2.2460    0.0380    1.2730 C   0  0  0  0  0  0  0  0  0  0  0  0
   -1.7140   -1.2770    1.6650 N   0  0  0  0  0  0  0  0  0  0  0  0
   -0.3530    0.3430   -0.3000 C   0  0  0  0  0  0  0  0  0  0  0  0
    0.3300    1.5320   -0.4590 C   0  0  0  0  0  0  0  0  0  0  0  0
    1.7100    1.5680   -0.5960 C   0  0  0  0  0  0  0  0  0  0  0  0
    2.4630    0.4160   -0.5800 C   0  0  0  0  0  0  0  0  0  0  0  0
    3.8530    0.4390   -0.7170 O   0  0  0  0  0  0  0  0  0  0  0  0
    1.7970   -0.7770   -0.4230 C   0  0  0  0  0  0  0  0  0  0  0  0
    2.5310   -1.9550   -0.4040 O   0  0  0  0  0  0  0  0  0  0  0  0
    0.4050   -0.8080   -0.2850 C   0  0  0  0  0  0  0  0  0  0  0  0
  1  2  1  6
  1  3  1  0
  1  5  1  0
  3  4  1  0
  5  6  2  0
  5 12  1  0
  6  7  1  0
  7  8  2  0
  8  9  1  0
  8 10  1  0
 10 11  1  0
 10 12  2  0
M  CHG  1   4   1
M  END
>  <MODEL>  (27) 
       2

$$$$
../data/sim29_sdf/CHEMBL1160982.pdb
     RDKit          3D

 13 13  0  0  1  0  0  0  0  0999 V2000
   -2.4630   -0.8490   -0.4490 C   0  0  0  0  0  0  0  0  0  0  0  0
   -2.1450    0.6450   -0.3730 C   0  0  1  0  0  0  0  0  0  0  0  0
   -3.3440    1.3080    0.1130 N   0  0  0  0  0  0  0  0  0  0  0  0
   -1.0170    0.8390    0.5800 C   0  0  1  0  0  0  0  0  0  0  0  0
   -1.3120    0.3170    1.8390 O   0  0  0  0  0  0  0  0  0  0  0  0
    0.2760    0.3500    0.1620 C   0  0  0  0  0  0  0  0  0  0  0  0
    0.4960   -0.1240   -1.1070 C   0  0  0  0  0  0  0  0  0  0  0  0
    1.7280   -0.5920   -1.5090 C   0  0  0  0  0  0  0  0  0  0  0  0
    2.7820   -0.5780   -0.5830 C   0  0  0  0  0  0  0  0  0  0  0  0
    4.0080   -1.0580   -1.0270 O   0  0  0  0  0  0  0  0  0  0  0  0
    2.5850   -0.1080    0.6920 C   0  0  0  0  0  0  0  0  0  0  0  0
    3.6280   -0.0960    1.6030 O   0  0  0  0  0  0  0  0  0  0  0  0
    1.3250    0.3540    1.0520 C   0  0  0  0  0  0  0  0  0  0  0  0
  2  1  1  1
  2  3  1  0
  2  4  1  0
  4  5  1  1
  4  6  1  0
  6  7  2  0
  6 13  1  0
  7  8  1  0
  8  9  2  0
  9 10  1  0
  9 11  1  0
 11 12  1  0
 11 13  2  0
M  CHG  1   3   1
M  END
$$$$
../data/sim29_sdf/CHEMBL1350643.pdb
     RDKit          3D

 17 18  0  0  0  0  0  0  0  0999 V2000
    4.6240   -0.0760   -1.6200 N   0  0  0  0  0  0  0  0  0  0  0  0
    3.4590   -0.3070   -0.8520 C   0  0  0  0  0  0  0  0  0  0  0  0
    2.5800   -1.2880   -1.2750 C   0  0  0  0  0  0  0  0  0  0  0  0
    1.4150   -1.5460   -0.5420 C   0  0  0  0  0  0  0  0  0  0  0  0
    1.1400   -0.8280    0.5990 C   0  0  0  0  0  0  0  0  0  0  0  0
   -0.0710   -1.0980    1.3590 C   0  0  0  0  0  0  0  0  0  0  0  0
   -1.2370   -0.2990    0.9410 C   0  0  0  0  0  0  0  0  0  0  0  0
   -1.5730    0.9250    1.4560 C   0  0  0  0  0  0  0  0  0  0  0  0
   -2.6860    1.6080    1.0050 C   0  0  0  0  0  0  0  0  0  0  0  0
   -3.4940    1.0760    0.0210 C   0  0  0  0  0  0  0  0  0  0  0  0
   -4.6280    1.8000   -0.4190 N   0  0  0  0  0  0  0  0  0  0  0  0
   -3.1770   -0.1440   -0.5060 C   0  0  0  0  0  0  0  0  0  0  0  0
   -3.9950   -0.6920   -1.5080 O   0  0  0  0  0  0  0  0  0  0  0  0
   -2.0530   -0.8200   -0.0420 C   0  0  0  0  0  0  0  0  0  0  0  0
    2.0330    0.1430    0.9970 C   0  0  0  0  0  0  0  0  0  0  0  0
    3.1810    0.4060    0.2850 C   0  0  0  0  0  0  0  0  0  0  0  0
    4.0460    1.3820    0.7140 O   0  0  0  0  0  0  0  0  0  0  0  0
  1  2  1  0
  2  3  2  0
  2 16  1  0
  3  4  1  0
  4  5  2  0
  5  6  1  0
  5 15  1  0
  6  7  1  0
  7  8  2  0
  7 14  1  0
  8  9  1  0
  9 10  2  0
 10 11  1  0
 10 12  1  0
 12 13  1  0
 12 14  2  0
 15 16  2  0
 16 17  1  0
M  END
>  <MODEL>  (29) 
       1

$$$$
../data/sim29_sdf/CHEMBL1350643.pdb
     RDKit          3D

 17 18  0  0  0  0  0  0  0  0999 V2000
   -4.6560    0.8280    1.3000 N   0  0  0  0  0  0  0  0  0  0  0  0
   -3.4860    0.2350    0.7510 C   0  0  0  0  0  0  0  0  0  0  0  0
   -3.1790    0.3680   -0.6020 C   0  0  0  0  0  0  0  0  0  0  0  0
   -2.0310   -0.2250   -1.0890 C   0  0  0  0  0  0  0  0  0  0  0  0
   -1.1710   -0.9470   -0.2890 C   0  0  0  0  0  0  0  0  0  0  0  0
    0.0280   -1.5440   -0.8900 C   0  0  0  0  0  0  0  0  0  0  0  0
    1.2030   -0.6510   -0.8600 C   0  0  0  0  0  0  0  0  0  0  0  0
    1.5070    0.2390   -1.8700 C   0  0  0  0  0  0  0  0  0  0  0  0
    2.6280    1.0260   -1.7430 C   0  0  0  0  0  0  0  0  0  0  0  0
    3.4550    0.9580   -0.6440 C   0  0  0  0  0  0  0  0  0  0  0  0
    4.6090    1.7570   -0.4940 N   0  0  0  0  0  0  0  0  0  0  0  0
    3.1590    0.0640    0.3830 C   0  0  0  0  0  0  0  0  0  0  0  0
    3.9870   -0.0230    1.5120 O   0  0  0  0  0  0  0  0  0  0  0  0
    2.0320   -0.7160    0.2370 C   0  0  0  0  0  0  0  0  0  0  0  0
   -1.4850   -1.0720    1.0530 C   0  0  0  0  0  0  0  0  0  0  0  0
   -2.6310   -0.4850    1.5590 C   0  0  0  0  0  0  0  0  0  0  0  0
   -2.9270   -0.6260    2.9230 O   0  0  0  0  0  0  0  0  0  0  0  0
  1  2  1  0
  2  3  2  0
  2 16  1  0
  3  4  1  0
  4  5  2  0
  5  6  1  0
  5 15  1  0
  6  7  1  0
  7  8  2  0
  7 14  1  0
  8  9  1  0
  9 10  2  0
 10 11  1  0
 10 12  1  0
 12 13  1  0
 12 14  2  0
 15 16  2  0
 16 17  1  0
M  END
>  <MODEL>  (30) 
       2

$$$$
../data/sim29_sdf/CHEMBL1350643.pdb
     RDKit          3D

 17 18  0  0  0  0  0  0  0  0999 V2000
    4.2200    2.2320    0.2860 N   0  0  0  0  0  0  0  0  0  0  0  0
    3.2370    1.2030    0.2480 C   0  0  0  0  0  0  0  0  0  0  0  0
    2.7110    0.7260    1.4320 C   0  0  0  0  0  0  0  0  0  0  0  0
    1.7630   -0.2680    1.3460 C   0  0  0  0  0  0  0  0  0  0  0  0
    1.3770   -0.7460    0.0970 C   0  0  0  0  0  0  0  0  0  0  0  0
    0.3430   -1.8280    0.0410 C   0  0  0  0  0  0  0  0  0  0  0  0
   -1.0140   -1.2310   -0.0360 C   0  0  0  0  0  0  0  0  0  0  0  0
   -1.5280   -0.9750   -1.2900 C   0  0  0  0  0  0  0  0  0  0  0  0
   -2.8020   -0.4130   -1.4180 C   0  0  0  0  0  0  0  0  0  0  0  0
   -3.5480   -0.1110   -0.2970 C   0  0  0  0  0  0  0  0  0  0  0  0
   -4.8500    0.4630   -0.4230 N   0  0  0  0  0  0  0  0  0  0  0  0
   -3.0330   -0.3670    0.9600 C   0  0  0  0  0  0  0  0  0  0  0  0
   -3.8200   -0.0470    2.0600 O   0  0  0  0  0  0  0  0  0  0  0  0
   -1.7790   -0.9200    1.0530 C   0  0  0  0  0  0  0  0  0  0  0  0
    1.9140   -0.2550   -1.0590 C   0  0  0  0  0  0  0  0  0  0  0  0
    2.8620    0.7390   -0.9890 C   0  0  0  0  0  0  0  0  0  0  0  0
    3.4020    1.2310   -2.1680 O   0  0  0  0  0  0  0  0  0  0  0  0
  1  2  1  0
  2  3  2  0
  2 16  1  0
  3  4  1  0
  4  5  2  0
  5  6  1  0
  5 15  1  0
  6  7  1  0
  7  8  2  0
  7 14  1  0
  8  9  1  0
  9 10  2  0
 10 11  1  0
 10 12  1  0
 12 13  1  0
 12 14  2  0
 15 16  2  0
 16 17  1  0
M  END
>  <MODEL>  (31) 
       3

$$$$
../data/sim29_sdf/CHEMBL1612659.pdb
     RDKit          3D

 13 13  0  0  1  0  0  0  0  0999 V2000
   -2.1160   -0.5990   -1.2160 C   0  0  0  0  0  0  0  0  0  0  0  0
   -2.0630   -0.5540    0.2840 C   0  0  2  0  0  0  0  0  0  0  0  0
   -3.4100   -0.2780    0.7640 N   0  0  0  0  0  0  0  0  0  0  0  0
   -1.1690    0.5380    0.8090 C   0  0  2  0  0  0  0  0  0  0  0  0
   -1.5720    1.7900    0.3660 O   0  0  0  0  0  0  0  0  0  0  0  0
    0.2460    0.3560    0.4990 C   0  0  0  0  0  0  0  0  0  0  0  0
    1.0910   -0.1690    1.4490 C   0  0  0  0  0  0  0  0  0  0  0  0
    2.4430   -0.3650    1.2140 C   0  0  0  0  0  0  0  0  0  0  0  0
    2.9670   -0.0250   -0.0170 C   0  0  0  0  0  0  0  0  0  0  0  0
    4.3140   -0.1970   -0.3170 O   0  0  0  0  0  0  0  0  0  0  0  0
    2.1390    0.5040   -0.9890 C   0  0  0  0  0  0  0  0  0  0  0  0
    2.6570    0.8470   -2.2240 O   0  0  0  0  0  0  0  0  0  0  0  0
    0.7970    0.6850   -0.7170 C   0  0  0  0  0  0  0  0  0  0  0  0
  2  1  1  6
  2  3  1  0
  2  4  1  0
  4  5  1  6
  4  6  1  0
  6  7  2  0
  6 13  1  0
  7  8  1  0
  8  9  2  0
  9 10  1  0
  9 11  1  0
 11 12  1  0
 11 13  2  0
M  CHG  1   3   1
M  END
$$$$
../data/sim29_sdf/CHEMBL1462.pdb
     RDKit          3D

 11 11  0  0  0  0  0  0  0  0999 V2000
   -2.6810   -0.4450   -1.2910 N   0  0  0  0  0  0  0  0  0  0  0  0
   -1.4050   -0.1850   -0.7280 C   0  0  0  0  0  0  0  0  0  0  0  0
   -0.5290    0.6850   -1.3850 C   0  0  0  0  0  0  0  0  0  0  0  0
    0.7060    0.9050   -0.7910 C   0  0  0  0  0  0  0  0  0  0  0  0
    1.0630    0.2990    0.3900 C   0  0  0  0  0  0  0  0  0  0  0  0
    2.3790    0.5620    0.9800 C   0  0  0  0  0  0  0  0  0  0  0  0
    2.7150    0.0150    2.0590 O   0  0  0  0  0  0  0  0  0  0  0  0
    3.2980    1.4080    0.3900 O   0  0  0  0  0  0  0  0  0  0  0  0
    0.1980   -0.5550    1.0340 C   0  0  0  0  0  0  0  0  0  0  0  0
   -1.0540   -0.7960    0.4590 C   0  0  0  0  0  0  0  0  0  0  0  0
   -1.9790   -1.6460    1.0500 O   0  0  0  0  0  0  0  0  0  0  0  0
  1  2  1  0
  2  3  2  0
  2 10  1  0
  3  4  1  0
  4  5  2  0
  5  6  1  0
  5  9  1  0
  6  7  2  0
  6  8  1  0
  9 10  2  0
 10 11  1  0
M  END
$$$$
../data/sim29_sdf/CHEMBL3273169.pdb
     RDKit          3D

 12 12  0  0  1  0  0  0  0  0999 V2000
   -2.3290    1.7430   -0.3740 N   0  0  0  0  0  0  0  0  0  0  0  0
   -2.5520    0.4430    0.1350 C   0  0  0  0  0  0  0  0  0  0  0  0
   -1.6690   -0.6300   -0.3570 C   0  0  2  0  0  0  0  0  0  0  0  0
   -1.9900   -1.8880    0.2070 O   0  0  0  0  0  0  0  0  0  0  0  0
   -0.2370   -0.4490   -0.2140 C   0  0  0  0  0  0  0  0  0  0  0  0
    0.5920   -1.4960   -0.5640 C   0  0  0  0  0  0  0  0  0  0  0  0
    1.9490   -1.4590   -0.4750 C   0  0  0  0  0  0  0  0  0  0  0  0
    2.5720   -0.3110   -0.0070 C   0  0  0  0  0  0  0  0  0  0  0  0
    3.9400   -0.2920    0.0750 O   0  0  0  0  0  0  0  0  0  0  0  0
    1.7730    0.7600    0.3530 C   0  0  0  0  0  0  0  0  0  0  0  0
    2.3440    1.9200    0.8230 O   0  0  0  0  0  0  0  0  0  0  0  0
    0.3800    0.6930    0.2510 C   0  0  0  0  0  0  0  0  0  0  0  0
  1  2  1  0
  2  3  1  0
  3  4  1  1
  3  5  1  0
  5  6  2  0
  5 12  1  0
  6  7  1  0
  7  8  2  0
  8  9  1  0
  8 10  1  0
 10 11  1  0
 10 12  2  0
M  CHG  1   1   1
M  END
>  <MODEL>  (34) 
       1

$$$$
../data/sim29_sdf/CHEMBL3273169.pdb
     RDKit          3D

 12 12  0  0  1  0  0  0  0  0999 V2000
    2.9610    0.5360    0.6520 N   0  0  0  0  0  0  0  0  0  0  0  0
    2.5560    0.1810   -0.6650 C   0  0  0  0  0  0  0  0  0  0  0  0
    1.4170   -0.7440   -0.8060 C   0  0  2  0  0  0  0  0  0  0  0  0
    1.2130   -0.9710   -2.1930 O   0  0  0  0  0  0  0  0  0  0  0  0
    0.1260   -0.3090   -0.2360 C   0  0  0  0  0  0  0  0  0  0  0  0
   -0.0540    0.7660    0.5960 C   0  0  0  0  0  0  0  0  0  0  0  0
   -1.3210    1.0990    1.0910 C   0  0  0  0  0  0  0  0  0  0  0  0
   -2.4290    0.3630    0.7610 C   0  0  0  0  0  0  0  0  0  0  0  0
   -3.7070    0.6850    1.2490 O   0  0  0  0  0  0  0  0  0  0  0  0
   -2.2570   -0.7190   -0.0750 C   0  0  0  0  0  0  0  0  0  0  0  0
   -3.3680   -1.5030   -0.4400 O   0  0  0  0  0  0  0  0  0  0  0  0
   -1.0160   -1.0470   -0.5610 C   0  0  0  0  0  0  0  0  0  0  0  0
  1  2  1  0
  2  3  1  0
  3  4  1  6
  3  5  1  0
  5  6  2  0
  5 12  1  0
  6  7  1  0
  7  8  2  0
  8  9  1  0
  8 10  1  0
 10 11  1  0
 10 12  2  0
M  CHG  1   1   1
M  END
>  <MODEL>  (35) 
       2

$$$$
../data/sim29_sdf/CHEMBL1437.pdb
     RDKit          3D

 12 12  0  0  1  0  0  0  0  0999 V2000
   -3.6500    0.0010    0.5950 N   0  0  0  0  0  0  0  0  0  0  0  0
   -2.2200    0.1780    0.7530 C   0  0  0  0  0  0  0  0  0  0  0  0
   -1.5060   -0.2670   -0.5070 C   0  0  2  0  0  0  0  0  0  0  0  0
   -1.8070   -1.6250   -0.7120 O   0  0  0  0  0  0  0  0  0  0  0  0
   -0.0510   -0.1870   -0.2310 C   0  0  0  0  0  0  0  0  0  0  0  0
    0.5230   -1.0850    0.6430 C   0  0  0  0  0  0  0  0  0  0  0  0
    1.8670   -1.0440    0.9250 C   0  0  0  0  0  0  0  0  0  0  0  0
    2.7050   -0.0960    0.3410 C   0  0  0  0  0  0  0  0  0  0  0  0
    4.0660   -0.0610    0.6310 O   0  0  0  0  0  0  0  0  0  0  0  0
    2.1000    0.7880   -0.5300 C   0  0  0  0  0  0  0  0  0  0  0  0
    2.9040    1.7470   -1.1310 O   0  0  0  0  0  0  0  0  0  0  0  0
    0.7570    0.7560   -0.8180 C   0  0  0  0  0  0  0  0  0  0  0  0
  1  2  1  0
  2  3  1  0
  3  4  1  1
  3  5  1  0
  5  6  2  0
  5 12  1  0
  6  7  1  0
  7  8  2  0
  8  9  1  0
  8 10  1  0
 10 11  1  0
 10 12  2  0
M  CHG  1   1   1
M  END
$$$$
../data/sim29_sdf/CHEMBL270197.pdb
     RDKit          3D

  9  9  0  0  0  0  0  0  0  0999 V2000
   -2.4480   -0.6680    0.1420 N   0  0  0  0  0  0  0  0  0  0  0  0
   -1.0420   -0.4630    0.1020 C   0  0  0  0  0  0  0  0  0  0  0  0
   -0.1440   -1.4790    0.3420 C   0  0  0  0  0  0  0  0  0  0  0  0
    1.2170   -1.2620    0.2990 C   0  0  0  0  0  0  0  0  0  0  0  0
    1.6560    0.0110    0.0060 C   0  0  0  0  0  0  0  0  0  0  0  0
    3.0370    0.2350   -0.0380 O   0  0  0  0  0  0  0  0  0  0  0  0
    0.8010    1.0610   -0.2420 C   0  0  0  0  0  0  0  0  0  0  0  0
   -0.5550    0.8180   -0.1930 C   0  0  0  0  0  0  0  0  0  0  0  0
   -1.4580    1.8540   -0.4380 O   0  0  0  0  0  0  0  0  0  0  0  0
  1  2  1  0
  2  3  2  0
  2  8  1  0
  3  4  1  0
  4  5  2  0
  5  6  1  0
  5  7  1  0
  7  8  2  0
  8  9  1  0
M  END
$$$$
../data/sim29_sdf/CHEMBL3248963.pdb
     RDKit          3D

 12 12  0  0  1  0  0  0  0  0999 V2000
   -2.4920   -0.8940    1.0560 N   0  0  0  0  0  0  0  0  0  0  0  0
   -2.4480    0.3730    0.3910 C   0  0  0  0  0  0  0  0  0  0  0  0
   -1.5200    0.3770   -0.8060 C   0  0  2  0  0  0  0  0  0  0  0  0
   -1.9410   -0.5740   -1.7400 O   0  0  0  0  0  0  0  0  0  0  0  0
   -0.1060    0.1750   -0.4290 C   0  0  0  0  0  0  0  0  0  0  0  0
    0.3550   -1.0870   -0.1470 C   0  0  0  0  0  0  0  0  0  0  0  0
    1.6940   -1.2730    0.2100 C   0  0  0  0  0  0  0  0  0  0  0  0
    2.5430   -0.1820    0.2770 C   0  0  0  0  0  0  0  0  0  0  0  0
    3.8760   -0.3400    0.6290 O   0  0  0  0  0  0  0  0  0  0  0  0
    2.0880    1.0920   -0.0050 C   0  0  0  0  0  0  0  0  0  0  0  0
    2.9600    2.1670    0.0690 O   0  0  0  0  0  0  0  0  0  0  0  0
    0.7470    1.2460   -0.3590 C   0  0  0  0  0  0  0  0  0  0  0  0
  1  2  1  0
  2  3  1  0
  3  4  1  6
  3  5  1  0
  5  6  2  0
  5 12  1  0
  6  7  1  0
  7  8  2  0
  8  9  1  0
  8 10  1  0
 10 11  1  0
 10 12  2  0
M  CHG  1   1   1
M  END
$$$$
../data/sim29_sdf/CHEMBL14927.pdb
     RDKit          3D

 22 23  0  0  1  0  0  0  0  0999 V2000
   -2.6680    2.6280    0.4580 C   0  0  0  0  0  0  0  0  0  0  0  0
   -1.2500    2.4050    1.0400 C   0  0  0  0  0  0  0  0  0  0  0  0
   -0.4590    1.5270    0.1170 C   0  0  2  0  0  0  0  0  0  0  0  0
   -1.2530    0.2540   -0.0060 C   0  0  0  0  0  0  0  0  0  0  0  0
   -1.8170   -0.0770   -1.2070 C   0  0  0  0  0  0  0  0  0  0  0  0
   -2.5600   -1.2550   -1.3480 C   0  0  0  0  0  0  0  0  0  0  0  0
   -2.7260   -2.0830   -0.2770 C   0  0  0  0  0  0  0  0  0  0  0  0
   -3.4720   -3.2730   -0.4000 O   0  0  0  0  0  0  0  0  0  0  0  0
   -2.1540   -1.7420    0.9320 C   0  0  0  0  0  0  0  0  0  0  0  0
   -2.3470   -2.6270    2.0250 N   0  0  0  0  0  0  0  0  0  0  0  0
   -1.4110   -0.5630    1.0700 C   0  0  0  0  0  0  0  0  0  0  0  0
    0.9410    1.2270    0.4780 C   0  0  2  0  0  0  0  0  0  0  0  0
    1.9010    2.3560    0.6160 C   0  0  0  0  0  0  0  0  0  0  0  0
    1.6510    3.3700    1.6740 C   0  0  0  0  0  0  0  0  0  0  0  0
    1.5190    0.1360   -0.3760 C   0  0  0  0  0  0  0  0  0  0  0  0
    1.7290    0.3360   -1.7160 C   0  0  0  0  0  0  0  0  0  0  0  0
    2.2710   -0.6950   -2.5010 C   0  0  0  0  0  0  0  0  0  0  0  0
    2.5940   -1.9190   -1.9160 C   0  0  0  0  0  0  0  0  0  0  0  0
    3.1300   -2.9530   -2.6660 O   0  0  0  0  0  0  0  0  0  0  0  0
    2.3800   -2.1100   -0.5720 C   0  0  0  0  0  0  0  0  0  0  0  0
    2.7030   -3.3530    0.0490 N   0  0  0  0  0  0  0  0  0  0  0  0
    1.8470   -1.0750    0.1650 C   0  0  0  0  0  0  0  0  0  0  0  0
  1  2  1  0
  3  2  1  1
  3  4  1  0
  3 12  1  0
  4  5  2  0
  4 11  1  0
  5  6  1  0
  6  7  2  0
  7  8  1  0
  7  9  1  0
  9 10  1  0
  9 11  2  0
 12 13  1  6
 12 15  1  0
 13 14  1  0
 15 16  2  0
 15 22  1  0
 16 17  1  0
 17 18  2  0
 18 19  1  0
 18 20  1  0
 20 21  1  0
 20 22  2  0
M  END
>  <MODEL>  (39) 
       1

$$$$
../data/sim29_sdf/CHEMBL14927.pdb
     RDKit          3D

 22 23  0  0  1  0  0  0  0  0999 V2000
    0.0690    0.1350   -2.6920 C   0  0  0  0  0  0  0  0  0  0  0  0
   -0.3180   -1.1080   -2.0090 C   0  0  0  0  0  0  0  0  0  0  0  0
   -0.6360   -1.1200   -0.5780 C   0  0  2  0  0  0  0  0  0  0  0  0
   -1.7460   -0.3260   -0.0720 C   0  0  0  0  0  0  0  0  0  0  0  0
   -2.3380    0.6710   -0.7760 C   0  0  0  0  0  0  0  0  0  0  0  0
   -3.3940    1.3900   -0.1880 C   0  0  0  0  0  0  0  0  0  0  0  0
   -3.8610    1.1280    1.0770 C   0  0  0  0  0  0  0  0  0  0  0  0
   -4.9160    1.8570    1.6460 O   0  0  0  0  0  0  0  0  0  0  0  0
   -3.2380    0.1070    1.7640 C   0  0  0  0  0  0  0  0  0  0  0  0
   -3.7110   -0.1760    3.0750 N   0  0  0  0  0  0  0  0  0  0  0  0
   -2.2010   -0.6080    1.2050 C   0  0  0  0  0  0  0  0  0  0  0  0
    0.5690   -1.1290    0.3450 C   0  0  1  0  0  0  0  0  0  0  0  0
    1.4430   -2.3320    0.1450 C   0  0  0  0  0  0  0  0  0  0  0  0
    0.6930   -3.6400    0.4050 C   0  0  0  0  0  0  0  0  0  0  0  0
    1.4180    0.0580    0.3100 C   0  0  0  0  0  0  0  0  0  0  0  0
    1.2740    1.0770    1.2630 C   0  0  0  0  0  0  0  0  0  0  0  0
    2.0560    2.1880    1.2780 C   0  0  0  0  0  0  0  0  0  0  0  0
    3.0450    2.3620    0.3340 C   0  0  0  0  0  0  0  0  0  0  0  0
    3.8530    3.5060    0.3450 O   0  0  0  0  0  0  0  0  0  0  0  0
    3.2280    1.3890   -0.6260 C   0  0  0  0  0  0  0  0  0  0  0  0
    4.2480    1.5690   -1.6020 N   0  0  0  0  0  0  0  0  0  0  0  0
    2.4240    0.2760   -0.6180 C   0  0  0  0  0  0  0  0  0  0  0  0
  1  2  1  0
  3  2  1  6
  3  4  1  0
  3 12  1  0
  4  5  2  0
  4 11  1  0
  5  6  1  0
  6  7  2  0
  7  8  1  0
  7  9  1  0
  9 10  1  0
  9 11  2  0
 12 13  1  6
 12 15  1  0
 13 14  1  0
 15 16  2  0
 15 22  1  0
 16 17  1  0
 17 18  2  0
 18 19  1  0
 18 20  1  0
 20 21  1  0
 20 22  2  0
M  END
>  <MODEL>  (40) 
       2

$$$$
../data/sim29_sdf/CHEMBL14927.pdb
     RDKit          3D

 22 23  0  0  1  0  0  0  0  0999 V2000
    2.3530   -2.4260    0.9790 C   0  0  0  0  0  0  0  0  0  0  0  0
    1.4910   -2.5930   -0.2220 C   0  0  0  0  0  0  0  0  0  0  0  0
    0.5980   -1.3970   -0.4240 C   0  0  2  0  0  0  0  0  0  0  0  0
    1.4110   -0.2080   -0.6050 C   0  0  0  0  0  0  0  0  0  0  0  0
    1.6400    0.2640   -1.8970 C   0  0  0  0  0  0  0  0  0  0  0  0
    2.3990    1.3950   -2.1140 C   0  0  0  0  0  0  0  0  0  0  0  0
    2.9640    2.1080   -1.0770 C   0  0  0  0  0  0  0  0  0  0  0  0
    3.7310    3.2460   -1.2500 O   0  0  0  0  0  0  0  0  0  0  0  0
    2.7510    1.6610    0.2090 C   0  0  0  0  0  0  0  0  0  0  0  0
    3.3080    2.3530    1.3400 N   0  0  0  0  0  0  0  0  0  0  0  0
    1.9900    0.5290    0.4030 C   0  0  0  0  0  0  0  0  0  0  0  0
   -0.4740   -1.2890    0.6170 C   0  0  2  0  0  0  0  0  0  0  0  0
   -1.3390   -2.5360    0.5650 C   0  0  0  0  0  0  0  0  0  0  0  0
   -2.4480   -2.4480    1.6240 C   0  0  0  0  0  0  0  0  0  0  0  0
   -1.3490   -0.1120    0.3820 C   0  0  0  0  0  0  0  0  0  0  0  0
   -1.5780    0.8430    1.3660 C   0  0  0  0  0  0  0  0  0  0  0  0
   -2.3810    1.9380    1.1740 C   0  0  0  0  0  0  0  0  0  0  0  0
   -3.0040    2.1260   -0.0440 C   0  0  0  0  0  0  0  0  0  0  0  0
   -3.8210    3.2510   -0.2210 O   0  0  0  0  0  0  0  0  0  0  0  0
   -2.8040    1.2090   -1.0370 C   0  0  0  0  0  0  0  0  0  0  0  0
   -3.4630    1.4280   -2.2910 N   0  0  0  0  0  0  0  0  0  0  0  0
   -1.9910    0.1090   -0.8290 C   0  0  0  0  0  0  0  0  0  0  0  0
  1  2  1  0
  3  2  1  1
  3  4  1  0
  3 12  1  0
  4  5  2  0
  4 11  1  0
  5  6  1  0
  6  7  2  0
  7  8  1  0
  7  9  1  0
  9 10  1  0
  9 11  2  0
 12 13  1  6
 12 15  1  0
 13 14  1  0
 15 16  2  0
 15 22  1  0
 16 17  1  0
 17 18  2  0
 18 19  1  0
 18 20  1  0
 20 21  1  0
 20 22  2  0
M  END
>  <MODEL>  (41) 
       3

$$$$
../data/sim29_sdf/CHEMBL1256471.pdb
     RDKit          3D

 13 13  0  0  1  0  0  0  0  0999 V2000
    2.6810    0.5570    0.4860 C   0  0  0  0  0  0  0  0  0  0  0  0
    2.2090   -0.6680   -0.2300 C   0  0  1  0  0  0  0  0  0  0  0  0
    1.7460   -1.6660    0.6970 N   0  0  0  0  0  0  0  0  0  0  0  0
    1.1430   -0.3680   -1.2520 C   0  0  2  0  0  0  0  0  0  0  0  0
    1.5360    0.5820   -2.1640 O   0  0  0  0  0  0  0  0  0  0  0  0
   -0.1410    0.0250   -0.6310 C   0  0  0  0  0  0  0  0  0  0  0  0
   -0.3360    1.3180   -0.2000 C   0  0  0  0  0  0  0  0  0  0  0  0
   -1.5250    1.7200    0.3860 C   0  0  0  0  0  0  0  0  0  0  0  0
   -2.5480    0.7970    0.5440 C   0  0  0  0  0  0  0  0  0  0  0  0
   -3.7110    1.2270    1.1270 O   0  0  0  0  0  0  0  0  0  0  0  0
   -2.3880   -0.5070    0.1240 C   0  0  0  0  0  0  0  0  0  0  0  0
   -3.3960   -1.4410    0.2730 O   0  0  0  0  0  0  0  0  0  0  0  0
   -1.1890   -0.8650   -0.4540 C   0  0  0  0  0  0  0  0  0  0  0  0
  2  1  1  1
  2  3  1  0
  2  4  1  0
  4  5  1  6
  4  6  1  0
  6  7  2  0
  6 13  1  0
  7  8  1  0
  8  9  2  0
  9 10  1  0
  9 11  1  0
 11 12  1  0
 11 13  2  0
M  CHG  1   3   1
M  END
>  <MODEL>  (42) 
       1

$$$$
../data/sim29_sdf/CHEMBL1256471.pdb
     RDKit          3D

 13 13  0  0  1  0  0  0  0  0999 V2000
   -3.4340    0.6250    0.1260 C   0  0  0  0  0  0  0  0  0  0  0  0
   -2.0370    0.1310    0.4630 C   0  0  1  0  0  0  0  0  0  0  0  0
   -1.9750   -1.2810    0.1330 N   0  0  0  0  0  0  0  0  0  0  0  0
   -1.0740    0.8860   -0.4020 C   0  0  2  0  0  0  0  0  0  0  0  0
   -1.4590    0.6720   -1.7410 O   0  0  0  0  0  0  0  0  0  0  0  0
    0.3380    0.5380   -0.1670 C   0  0  0  0  0  0  0  0  0  0  0  0
    1.1880    1.3470    0.5540 C   0  0  0  0  0  0  0  0  0  0  0  0
    2.5080    1.0300    0.7780 C   0  0  0  0  0  0  0  0  0  0  0  0
    3.0520   -0.1490    0.2750 C   0  0  0  0  0  0  0  0  0  0  0  0
    4.3890   -0.4250    0.5280 O   0  0  0  0  0  0  0  0  0  0  0  0
    2.2220   -0.9730   -0.4490 C   0  0  0  0  0  0  0  0  0  0  0  0
    2.7190   -2.1670   -0.9750 O   0  0  0  0  0  0  0  0  0  0  0  0
    0.8830   -0.6240   -0.6600 C   0  0  0  0  0  0  0  0  0  0  0  0
  2  1  1  6
  2  3  1  0
  2  4  1  0
  4  5  1  6
  4  6  1  0
  6  7  2  0
  6 13  1  0
  7  8  1  0
  8  9  2  0
  9 10  1  0
  9 11  1  0
 11 12  1  0
 11 13  2  0
M  CHG  1   3   1
M  END
>  <MODEL>  (43) 
       2

$$$$
../data/sim29_sdf/CHEMBL3637795.pdb
     RDKit          3D

 20 21  0  0  1  0  0  0  0  0999 V2000
    6.0430    1.5660   -1.9640 N   0  0  0  0  0  0  0  0  0  0  0  0
    4.9480    0.9440   -1.3190 C   0  0  0  0  0  0  0  0  0  0  0  0
    3.7500    1.6030   -1.1400 C   0  0  0  0  0  0  0  0  0  0  0  0
    2.6730    0.9910   -0.4980 C   0  0  0  0  0  0  0  0  0  0  0  0
    2.8200   -0.2880   -0.0390 C   0  0  0  0  0  0  0  0  0  0  0  0
    1.7370   -1.0020    0.6710 C   0  0  2  0  0  0  0  0  0  0  0  0
    1.5980   -2.3030    0.1620 O   0  0  0  0  0  0  0  0  0  0  0  0
    0.4000   -0.3190    0.5230 C   0  0  0  0  0  0  0  0  0  0  0  0
   -0.5740   -1.0870    1.3080 N   0  0  0  0  0  0  0  0  0  0  0  0
   -1.8940   -0.5200    1.2860 C   0  0  0  0  0  0  0  0  0  0  0  0
   -2.5010   -0.6610   -0.0600 C   0  0  0  0  0  0  0  0  0  0  0  0
   -3.8640   -0.0910   -0.1540 C   0  0  0  0  0  0  0  0  0  0  0  0
   -3.9460    1.2480   -0.5590 C   0  0  0  0  0  0  0  0  0  0  0  0
   -5.1570    1.8850   -0.6700 C   0  0  0  0  0  0  0  0  0  0  0  0
   -6.3380    1.2400   -0.3900 C   0  0  0  0  0  0  0  0  0  0  0  0
   -6.2520   -0.0960    0.0130 C   0  0  0  0  0  0  0  0  0  0  0  0
   -5.0270   -0.7300    0.1220 C   0  0  0  0  0  0  0  0  0  0  0  0
    4.0370   -0.9500   -0.2230 C   0  0  0  0  0  0  0  0  0  0  0  0
    5.0950   -0.3460   -0.8570 C   0  0  0  0  0  0  0  0  0  0  0  0
    6.3140   -1.0020   -1.0440 O   0  0  0  0  0  0  0  0  0  0  0  0
  1  2  1  0
  2  3  2  0
  2 19  1  0
  3  4  1  0
  4  5  2  0
  5  6  1  0
  5 18  1  0
  6  7  1  6
  6  8  1  0
  8  9  1  0
  9 10  1  0
 10 11  1  0
 11 12  1  0
 12 13  2  0
 12 17  1  0
 13 14  1  0
 14 15  2  0
 15 16  1  0
 16 17  2  0
 18 19  2  0
 19 20  1  0
M  CHG  1   9   1
M  END
>  <MODEL>  (44) 
       1

$$$$
../data/sim29_sdf/CHEMBL3637795.pdb
     RDKit          3D

 20 21  0  0  1  0  0  0  0  0999 V2000
   -5.0580    2.1360    0.8140 N   0  0  0  0  0  0  0  0  0  0  0  0
   -4.1450    1.0890    0.5190 C   0  0  0  0  0  0  0  0  0  0  0  0
   -3.5120    0.3400    1.4790 C   0  0  0  0  0  0  0  0  0  0  0  0
   -2.6410   -0.6550    1.1410 C   0  0  0  0  0  0  0  0  0  0  0  0
   -2.3720   -0.9370   -0.1660 C   0  0  0  0  0  0  0  0  0  0  0  0
   -1.4570   -1.9730   -0.6140 C   0  0  2  0  0  0  0  0  0  0  0  0
   -1.3930   -3.1250    0.1510 O   0  0  0  0  0  0  0  0  0  0  0  0
   -0.1650   -1.4800   -1.1250 C   0  0  0  0  0  0  0  0  0  0  0  0
    0.8880   -1.1630   -0.2580 N   0  0  0  0  0  0  0  0  0  0  0  0
    0.8190   -0.0560    0.6070 C   0  0  0  0  0  0  0  0  0  0  0  0
    2.1780    0.0630    1.3130 C   0  0  0  0  0  0  0  0  0  0  0  0
    3.2840    0.2720    0.3760 C   0  0  0  0  0  0  0  0  0  0  0  0
    3.6200    1.5840    0.0220 C   0  0  0  0  0  0  0  0  0  0  0  0
    4.6450    1.8710   -0.8440 C   0  0  0  0  0  0  0  0  0  0  0  0
    5.3860    0.8560   -1.3980 C   0  0  0  0  0  0  0  0  0  0  0  0
    5.0540   -0.4390   -1.0470 C   0  0  0  0  0  0  0  0  0  0  0  0
    4.0270   -0.7400   -0.1800 C   0  0  0  0  0  0  0  0  0  0  0  0
   -3.0180   -0.1740   -1.1460 C   0  0  0  0  0  0  0  0  0  0  0  0
   -3.8830    0.8140   -0.7980 C   0  0  0  0  0  0  0  0  0  0  0  0
   -4.5120    1.5600   -1.8110 O   0  0  0  0  0  0  0  0  0  0  0  0
  1  2  1  0
  2  3  2  0
  2 19  1  0
  3  4  1  0
  4  5  2  0
  5  6  1  0
  5 18  1  0
  6  7  1  1
  6  8  1  0
  8  9  1  0
  9 10  1  0
 10 11  1  0
 11 12  1  0
 12 13  2  0
 12 17  1  0
 13 14  1  0
 14 15  2  0
 15 16  1  0
 16 17  2  0
 18 19  2  0
 19 20  1  0
M  CHG  1   9   1
M  END
>  <MODEL>  (45) 
       2

$$$$
../data/sim29_sdf/CHEMBL3637795.pdb
     RDKit          3D

 20 21  0  0  1  0  0  0  0  0999 V2000
    3.1230    3.0520    1.9980 N   0  0  0  0  0  0  0  0  0  0  0  0
    2.7080    1.7420    1.5810 C   0  0  0  0  0  0  0  0  0  0  0  0
    1.4440    1.2750    1.8870 C   0  0  0  0  0  0  0  0  0  0  0  0
    1.0270   -0.0000    1.4890 C   0  0  0  0  0  0  0  0  0  0  0  0
    1.8560   -0.8350    0.7790 C   0  0  0  0  0  0  0  0  0  0  0  0
    1.4150   -2.1770    0.3870 C   0  0  2  0  0  0  0  0  0  0  0  0
    2.4090   -2.7670   -0.4470 O   0  0  0  0  0  0  0  0  0  0  0  0
    0.1430   -2.2990   -0.3630 C   0  0  0  0  0  0  0  0  0  0  0  0
   -1.0200   -1.7290    0.2300 N   0  0  0  0  0  0  0  0  0  0  0  0
   -2.1890   -2.0870   -0.6020 C   0  0  0  0  0  0  0  0  0  0  0  0
   -3.3650   -1.1830   -0.1900 C   0  0  0  0  0  0  0  0  0  0  0  0
   -2.9080    0.2250   -0.4910 C   0  0  0  0  0  0  0  0  0  0  0  0
   -3.1560    0.6750   -1.7820 C   0  0  0  0  0  0  0  0  0  0  0  0
   -2.7030    1.9320   -2.1150 C   0  0  0  0  0  0  0  0  0  0  0  0
   -2.0190    2.7410   -1.2130 C   0  0  0  0  0  0  0  0  0  0  0  0
   -1.7980    2.2510    0.0540 C   0  0  0  0  0  0  0  0  0  0  0  0
   -2.2420    0.9890    0.4280 C   0  0  0  0  0  0  0  0  0  0  0  0
    3.1140   -0.3310    0.4910 C   0  0  0  0  0  0  0  0  0  0  0  0
    3.5530    0.9190    0.8690 C   0  0  0  0  0  0  0  0  0  0  0  0
    4.8540    1.3410    0.5280 O   0  0  0  0  0  0  0  0  0  0  0  0
  1  2  1  0
  2  3  2  0
  2 19  1  0
  3  4  1  0
  4  5  2  0
  5  6  1  0
  5 18  1  0
  6  7  1  6
  6  8  1  0
  8  9  1  0
  9 10  1  0
 10 11  1  0
 11 12  1  0
 12 13  2  0
 12 17  1  0
 13 14  1  0
 14 15  2  0
 15 16  1  0
 16 17  2  0
 18 19  2  0
 19 20  1  0
M  CHG  1   9   1
M  END
>  <MODEL>  (46) 
       3

$$$$
