../data/sim29_sdf/CHEMBL677.pdb
     RDKit          3D

 13 13  0  0  1  0  0  0  0  0999 V2000
   -3.3650    0.6390   -0.2770 C   0  0  0  0  0  0  0  0  0  0  0  0
   -1.8860    0.3310   -0.5530 C   0  0  2  0  0  0  0  0  0  0  0  0
   -1.8500   -0.9260   -1.2230 N   0  0  0  0  0  0  0  0  0  0  0  0
   -1.1150    0.2990    0.7020 C   0  0  2  0  0  0  0  0  0  0  0  0
   -1.2560    1.5810    1.3090 O   0  0  0  0  0  0  0  0  0  0  0  0
    0.3120    0.0490    0.5750 C   0  0  0  0  0  0  0  0  0  0  0  0
    1.1350    0.2200    1.6990 C   0  0  0  0  0  0  0  0  0  0  0  0
    2.4970    0.0140    1.6550 C   0  0  0  0  0  0  0  0  0  0  0  0
    3.0940   -0.3730    0.4780 C   0  0  0  0  0  0  0  0  0  0  0  0
    4.4680   -0.5970    0.3730 O   0  0  0  0  0  0  0  0  0  0  0  0
    2.3020   -0.5480   -0.6470 C   0  0  0  0  0  0  0  0  0  0  0  0
    2.8510   -0.9370   -1.8550 O   0  0  0  0  0  0  0  0  0  0  0  0
    0.9200   -0.3310   -0.5720 C   0  0  0  0  0  0  0  0  0  0  0  0
  2  1  1  1
  2  3  1  0
  2  4  1  0
  4  5  1  6
  4  6  1  0
  6  7  2  0
  6 13  1  0
  7  8  1  0
  8  9  2  0
  9 10  1  0
  9 11  1  0
 11 12  1  0
 11 13  2  0
M  CHG  1   3   1
M  END
$$$$
../data/sim29_sdf/CHEMBL155014.pdb
     RDKit          3D

 22 23  0  0  1  0  0  0  0  0999 V2000
    0.4490   -1.4220    2.2850 C   0  0  0  0  0  0  0  0  0  0  0  0
   -0.7340   -0.7630    1.6610 C   0  0  0  0  0  0  0  0  0  0  0  0
   -0.4990    0.1580    0.5380 C   0  0  2  0  0  0  0  0  0  0  0  0
   -1.8370    0.7050    0.0950 C   0  0  0  0  0  0  0  0  0  0  0  0
   -2.0300    2.0750   -0.0260 C   0  0  0  0  0  0  0  0  0  0  0  0
   -3.2370    2.5870   -0.4170 C   0  0  0  0  0  0  0  0  0  0  0  0
   -4.3170    1.7600   -0.7090 C   0  0  0  0  0  0  0  0  0  0  0  0
   -5.5660    2.2840   -1.1130 N   0  0  0  0  0  0  0  0  0  0  0  0
   -4.1450    0.4080   -0.5950 C   0  0  0  0  0  0  0  0  0  0  0  0
   -5.1620   -0.5150   -0.8630 O   0  0  0  0  0  0  0  0  0  0  0  0
   -2.9110   -0.1050   -0.1950 C   0  0  0  0  0  0  0  0  0  0  0  0
    0.2870   -0.3270   -0.6380 C   0  0  2  0  0  0  0  0  0  0  0  0
   -0.2480   -1.5000   -1.3650 C   0  0  0  0  0  0  0  0  0  0  0  0
    0.6860   -1.8450   -2.5120 C   0  0  0  0  0  0  0  0  0  0  0  0
    1.7300   -0.3360   -0.3610 C   0  0  0  0  0  0  0  0  0  0  0  0
    2.4890   -1.4550   -0.1230 C   0  0  0  0  0  0  0  0  0  0  0  0
    3.8390   -1.3840    0.1370 C   0  0  0  0  0  0  0  0  0  0  0  0
    4.4850   -0.1690    0.1680 C   0  0  0  0  0  0  0  0  0  0  0  0
    5.8940   -0.0710    0.4390 N   0  0  0  0  0  0  0  0  0  0  0  0
    3.7390    0.9620   -0.0680 C   0  0  0  0  0  0  0  0  0  0  0  0
    4.4110    2.2000   -0.0330 O   0  0  0  0  0  0  0  0  0  0  0  0
    2.3990    0.8760   -0.3250 C   0  0  0  0  0  0  0  0  0  0  0  0
  1  2  1  0
  3  2  1  1
  3  4  1  0
  3 12  1  0
  4  5  2  0
  4 11  1  0
  5  6  1  0
  6  7  2  0
  7  8  1  0
  7  9  1  0
  9 10  1  0
  9 11  2  0
 12 13  1  1
 12 15  1  0
 13 14  1  0
 15 16  2  0
 15 22  1  0
 16 17  1  0
 17 18  2  0
 18 19  1  0
 18 20  1  0
 20 21  1  0
 20 22  2  0
M  END
$$$$
../data/sim29_sdf/CHEMBL2062273.pdb
     RDKit          3D

 12 12  0  0  1  0  0  0  0  0999 V2000
    3.5800    0.1180   -0.6380 N   0  0  0  0  0  0  0  0  0  0  0  0
    2.1620    0.3910   -0.5310 C   0  0  0  0  0  0  0  0  0  0  0  0
    1.4420   -0.7160    0.2270 C   0  0  2  0  0  0  0  0  0  0  0  0
    1.5900   -1.9440   -0.4140 O   0  0  0  0  0  0  0  0  0  0  0  0
    0.0380   -0.3090    0.3560 C   0  0  0  0  0  0  0  0  0  0  0  0
   -0.4080    0.1950    1.5470 C   0  0  0  0  0  0  0  0  0  0  0  0
   -1.7380    0.5760    1.6520 C   0  0  0  0  0  0  0  0  0  0  0  0
   -2.5980    0.4510    0.5840 C   0  0  0  0  0  0  0  0  0  0  0  0
   -3.9510    0.8390    0.6950 O   0  0  0  0  0  0  0  0  0  0  0  0
   -2.1300   -0.0600   -0.6090 C   0  0  0  0  0  0  0  0  0  0  0  0
   -3.0320   -0.1700   -1.6650 O   0  0  0  0  0  0  0  0  0  0  0  0
   -0.8110   -0.4360   -0.7110 C   0  0  0  0  0  0  0  0  0  0  0  0
  1  2  1  0
  2  3  1  0
  3  4  1  6
  3  5  1  0
  5  6  2  0
  5 12  1  0
  6  7  1  0
  7  8  2  0
  8  9  1  0
  8 10  1  0
 10 11  1  0
 10 12  2  0
M  CHG  1   1   1
M  END
$$$$
../data/sim29_sdf/CHEMBL288787.pdb
     RDKit          3D

 11 11  0  0  1  0  0  0  0  0999 V2000
   -2.8220    0.5040   -0.7240 N   0  0  0  0  0  0  0  0  0  0  0  0
   -1.9970   -0.5610   -0.2020 C   0  0  2  0  0  0  0  0  0  0  0  0
   -2.5480   -0.9500    1.0190 O   0  0  0  0  0  0  0  0  0  0  0  0
   -0.5730   -0.1490   -0.0660 C   0  0  0  0  0  0  0  0  0  0  0  0
   -0.2730    1.0790    0.4880 C   0  0  0  0  0  0  0  0  0  0  0  0
    1.0550    1.4850    0.6250 C   0  0  0  0  0  0  0  0  0  0  0  0
    2.1100    0.6930    0.2210 C   0  0  0  0  0  0  0  0  0  0  0  0
    3.4260    1.1190    0.3670 O   0  0  0  0  0  0  0  0  0  0  0  0
    1.7890   -0.5320   -0.3310 C   0  0  0  0  0  0  0  0  0  0  0  0
    2.8320   -1.3340   -0.7400 O   0  0  0  0  0  0  0  0  0  0  0  0
    0.4790   -0.9470   -0.4730 C   0  0  0  0  0  0  0  0  0  0  0  0
  2  1  1  1
  2  3  1  0
  2  4  1  0
  4  5  2  0
  4 11  1  0
  5  6  1  0
  6  7  2  0
  7  8  1  0
  7  9  1  0
  9 10  1  0
  9 11  2  0
M  CHG  1   1   1
M  END
$$$$
../data/sim29_sdf/CHEMBL432.pdb
     RDKit          3D

 12 12  0  0  1  0  0  0  0  0999 V2000
   -2.4510    0.9630    0.4170 N   0  0  0  0  0  0  0  0  0  0  0  0
   -2.4800   -0.4670    0.1190 C   0  0  0  0  0  0  0  0  0  0  0  0
   -1.3820   -0.8390   -0.8620 C   0  0  1  0  0  0  0  0  0  0  0  0
   -1.5730   -0.1200   -2.0520 O   0  0  0  0  0  0  0  0  0  0  0  0
   -0.0390   -0.5140   -0.3260 C   0  0  0  0  0  0  0  0  0  0  0  0
    0.7430   -1.5550    0.1260 C   0  0  0  0  0  0  0  0  0  0  0  0
    2.0100   -1.3580    0.6440 C   0  0  0  0  0  0  0  0  0  0  0  0
    2.4790   -0.0680    0.6960 C   0  0  0  0  0  0  0  0  0  0  0  0
    3.7600    0.1310    1.2190 O   0  0  0  0  0  0  0  0  0  0  0  0
    1.6930    0.9670    0.2430 C   0  0  0  0  0  0  0  0  0  0  0  0
    2.2190    2.2460    0.3200 O   0  0  0  0  0  0  0  0  0  0  0  0
    0.4200    0.7820   -0.2790 C   0  0  0  0  0  0  0  0  0  0  0  0
  1  2  1  0
  2  3  1  0
  3  4  1  6
  3  5  1  0
  5  6  2  0
  5 12  1  0
  6  7  1  0
  7  8  2  0
  8  9  1  0
  8 10  1  0
 10 11  1  0
 10 12  2  0
M  CHG  1   1   1
M  END
$$$$
../data/sim29_sdf/CHEMBL2062274.pdb
     RDKit          3D

 12 12  0  0  1  0  0  0  0  0999 V2000
    3.6330    0.3820   -0.3840 N   0  0  0  0  0  0  0  0  0  0  0  0
    2.1930    0.5620   -0.3050 C   0  0  0  0  0  0  0  0  0  0  0  0
    1.4690   -0.7510   -0.3310 C   0  0  1  0  0  0  0  0  0  0  0  0
    1.8600   -1.5550    0.7530 O   0  0  0  0  0  0  0  0  0  0  0  0
    0.0200   -0.5080   -0.1760 C   0  0  0  0  0  0  0  0  0  0  0  0
   -0.8270   -1.5650    0.1510 C   0  0  0  0  0  0  0  0  0  0  0  0
   -2.1810   -1.3510    0.2970 C   0  0  0  0  0  0  0  0  0  0  0  0
   -2.7500   -0.1050    0.1310 C   0  0  0  0  0  0  0  0  0  0  0  0
   -4.1130    0.0820    0.2840 O   0  0  0  0  0  0  0  0  0  0  0  0
   -1.9250    0.9350   -0.1900 C   0  0  0  0  0  0  0  0  0  0  0  0
   -2.4650    2.2190   -0.3680 O   0  0  0  0  0  0  0  0  0  0  0  0
   -0.5710    0.7200   -0.3370 C   0  0  0  0  0  0  0  0  0  0  0  0
  1  2  1  0
  2  3  1  0
  3  4  1  1
  3  5  1  0
  5  6  2  0
  5 12  1  0
  6  7  1  0
  7  8  2  0
  8  9  1  0
  8 10  1  0
 10 11  1  0
 10 12  2  0
M  CHG  1   1   1
M  END
$$$$
../data/sim29_sdf/CHEMBL1320902.pdb
     RDKit          3D

 13 13  0  0  1  0  0  0  0  0999 V2000
    3.3640   -0.4840    0.3480 C   0  0  0  0  0  0  0  0  0  0  0  0
    1.9240   -0.5790   -0.1600 C   0  0  2  0  0  0  0  0  0  0  0  0
    1.8830    0.1200   -1.3970 N   0  0  0  0  0  0  0  0  0  0  0  0
    1.0290    0.0290    0.9040 C   0  0  2  0  0  0  0  0  0  0  0  0
    1.0910   -0.6720    2.0930 O   0  0  0  0  0  0  0  0  0  0  0  0
   -0.3470    0.2530    0.4240 C   0  0  0  0  0  0  0  0  0  0  0  0
   -0.7600    1.4930   -0.0550 C   0  0  0  0  0  0  0  0  0  0  0  0
   -2.0540    1.6750   -0.4990 C   0  0  0  0  0  0  0  0  0  0  0  0
   -2.9880    0.6610   -0.4920 C   0  0  0  0  0  0  0  0  0  0  0  0
   -4.2940    0.8440   -0.9400 O   0  0  0  0  0  0  0  0  0  0  0  0
   -2.5870   -0.5710   -0.0200 C   0  0  0  0  0  0  0  0  0  0  0  0
   -3.5200   -1.6240   -0.0020 O   0  0  0  0  0  0  0  0  0  0  0  0
   -1.2940   -0.7500    0.4230 C   0  0  0  0  0  0  0  0  0  0  0  0
  2  1  1  1
  2  3  1  0
  2  4  1  0
  4  5  1  1
  4  6  1  0
  6  7  2  0
  6 13  1  0
  7  8  1  0
  8  9  2  0
  9 10  1  0
  9 11  1  0
 11 12  1  0
 11 13  2  0
M  CHG  1   3   1
M  END
$$$$
../data/sim29_sdf/CHEMBL764.pdb
     RDKit          3D

 13 13  0  0  1  0  0  0  0  0999 V2000
   -2.3720   -1.2490    0.8300 C   0  0  0  0  0  0  0  0  0  0  0  0
   -2.1940   -0.1870   -0.1960 C   0  0  1  0  0  0  0  0  0  0  0  0
   -2.1320    1.1500    0.3860 N   0  0  0  0  0  0  0  0  0  0  0  0
   -1.0730   -0.3840   -1.1570 C   0  0  1  0  0  0  0  0  0  0  0  0
   -1.2330    0.5990   -2.1660 O   0  0  0  0  0  0  0  0  0  0  0  0
    0.2720   -0.1590   -0.6110 C   0  0  0  0  0  0  0  0  0  0  0  0
    1.3170    0.0340   -1.5220 C   0  0  0  0  0  0  0  0  0  0  0  0
    2.6030    0.2520   -1.0980 C   0  0  0  0  0  0  0  0  0  0  0  0
    2.9150    0.2900    0.2330 C   0  0  0  0  0  0  0  0  0  0  0  0
    4.2140    0.5090    0.7070 O   0  0  0  0  0  0  0  0  0  0  0  0
    1.8950    0.1010    1.1400 C   0  0  0  0  0  0  0  0  0  0  0  0
    2.2150    0.1390    2.4990 O   0  0  0  0  0  0  0  0  0  0  0  0
    0.6100   -0.1170    0.7100 C   0  0  0  0  0  0  0  0  0  0  0  0
  2  1  1  1
  2  3  1  0
  2  4  1  0
  4  5  1  6
  4  6  1  0
  6  7  2  0
  6 13  1  0
  7  8  1  0
  8  9  2  0
  9 10  1  0
  9 11  1  0
 11 12  1  0
 11 13  2  0
M  CHG  1   3   1
M  END
$$$$
../data/sim29_sdf/CHEMBL1434513.pdb
     RDKit          3D

 12 12  0  0  1  0  0  0  0  0999 V2000
   -3.7010   -0.1480   -0.6190 N   0  0  0  0  0  0  0  0  0  0  0  0
   -2.2880    0.1030   -0.6630 C   0  0  0  0  0  0  0  0  0  0  0  0
   -1.5430   -0.4310    0.5140 C   0  0  2  0  0  0  0  0  0  0  0  0
   -2.0320    0.1590    1.6660 O   0  0  0  0  0  0  0  0  0  0  0  0
   -0.0980   -0.1410    0.3310 C   0  0  0  0  0  0  0  0  0  0  0  0
    0.3790    1.1190    0.5170 C   0  0  0  0  0  0  0  0  0  0  0  0
    1.7380    1.3590    0.3380 C   0  0  0  0  0  0  0  0  0  0  0  0
    2.5900    0.3360   -0.0230 C   0  0  0  0  0  0  0  0  0  0  0  0
    3.9460    0.5260   -0.2130 O   0  0  0  0  0  0  0  0  0  0  0  0
    2.1000   -0.9490   -0.2120 C   0  0  0  0  0  0  0  0  0  0  0  0
    2.9380   -1.9840   -0.5730 O   0  0  0  0  0  0  0  0  0  0  0  0
    0.7430   -1.1490   -0.0250 C   0  0  0  0  0  0  0  0  0  0  0  0
  1  2  1  0
  2  3  1  0
  3  4  1  1
  3  5  1  0
  5  6  2  0
  5 12  1  0
  6  7  1  0
  7  8  2  0
  8  9  1  0
  8 10  1  0
 10 11  1  0
 10 12  2  0
M  CHG  1   1   1
M  END
$$$$
../data/sim29_sdf/CHEMBL1734806.pdb
     RDKit          3D

 12 12  0  0  1  0  0  0  0  0999 V2000
   -3.6570   -0.6130    0.2310 N   0  0  0  0  0  0  0  0  0  0  0  0
   -2.2770   -0.3370    0.4670 C   0  0  0  0  0  0  0  0  0  0  0  0
   -1.5000   -0.1570   -0.8440 C   0  0  2  0  0  0  0  0  0  0  0  0
   -1.5890   -1.3150   -1.5970 O   0  0  0  0  0  0  0  0  0  0  0  0
   -0.0750    0.1460   -0.5690 C   0  0  0  0  0  0  0  0  0  0  0  0
    0.4280    1.4140   -0.7070 C   0  0  0  0  0  0  0  0  0  0  0  0
    1.7650    1.7140   -0.4520 C   0  0  0  0  0  0  0  0  0  0  0  0
    2.6110    0.7110   -0.0490 C   0  0  0  0  0  0  0  0  0  0  0  0
    3.9640    0.9510    0.2220 O   0  0  0  0  0  0  0  0  0  0  0  0
    2.1200   -0.5680    0.0950 C   0  0  0  0  0  0  0  0  0  0  0  0
    2.9390   -1.6090    0.4990 O   0  0  0  0  0  0  0  0  0  0  0  0
    0.7900   -0.8540   -0.1620 C   0  0  0  0  0  0  0  0  0  0  0  0
  1  2  1  0
  2  3  1  0
  3  4  1  6
  3  5  1  0
  5  6  2  0
  5 12  1  0
  6  7  1  0
  7  8  2  0
  8  9  1  0
  8 10  1  0
 10 11  1  0
 10 12  2  0
M  CHG  1   1   1
M  END
$$$$
../data/sim29_sdf/CHEMBL1356607.pdb
     RDKit          3D

 12 12  0  0  1  0  0  0  0  0999 V2000
    0.3780    3.6110   -0.5730 N   0  0  0  0  0  0  0  0  0  0  0  0
   -0.1470    2.3900   -0.0260 C   0  0  0  0  0  0  0  0  0  0  0  0
    0.6070    1.2270   -0.6150 C   0  0  2  0  0  0  0  0  0  0  0  0
    0.4380    1.2480   -1.9950 O   0  0  0  0  0  0  0  0  0  0  0  0
    0.1670   -0.0710   -0.0310 C   0  0  0  0  0  0  0  0  0  0  0  0
   -1.0280   -0.6280   -0.4380 C   0  0  0  0  0  0  0  0  0  0  0  0
   -1.4160   -1.8130    0.1040 C   0  0  0  0  0  0  0  0  0  0  0  0
   -0.6380   -2.4680    1.0550 C   0  0  0  0  0  0  0  0  0  0  0  0
   -1.1170   -3.6540    1.5380 O   0  0  0  0  0  0  0  0  0  0  0  0
    0.5480   -1.9300    1.4690 C   0  0  0  0  0  0  0  0  0  0  0  0
    1.3440   -2.5690    2.4200 O   0  0  0  0  0  0  0  0  0  0  0  0
    0.9300   -0.7280    0.9110 C   0  0  0  0  0  0  0  0  0  0  0  0
  1  2  1  0
  2  3  1  0
  3  4  1  6
  3  5  1  0
  5  6  2  0
  5 12  1  0
  6  7  1  0
  7  8  2  0
  8  9  1  0
  8 10  1  0
 10 11  1  0
 10 12  2  0
M  CHG  1   1   1
M  END
$$$$
../data/sim29_sdf/CHEMBL1545498.pdb
     RDKit          3D

 11 11  0  0  0  0  0  0  0  0999 V2000
   -2.2810   -1.4620   -0.2030 C   0  0  0  0  0  0  0  0  0  0  0  0
   -1.8430   -0.0250   -0.2940 C   0  0  0  0  0  0  0  0  0  0  0  0
   -2.4570    0.7000    0.9100 C   0  0  0  0  0  0  0  0  0  0  0  0
   -0.3890    0.1480   -0.3590 C   0  0  0  0  0  0  0  0  0  0  0  0
    0.2100    0.8020   -1.4250 C   0  0  0  0  0  0  0  0  0  0  0  0
    1.5760    0.9760   -1.5080 C   0  0  0  0  0  0  0  0  0  0  0  0
    2.3900    0.4940   -0.5150 C   0  0  0  0  0  0  0  0  0  0  0  0
    3.7700    0.6570   -0.5750 O   0  0  0  0  0  0  0  0  0  0  0  0
    1.8350   -0.1640    0.5660 C   0  0  0  0  0  0  0  0  0  0  0  0
    2.6410   -0.6720    1.6030 N   0  0  0  0  0  0  0  0  0  0  0  0
    0.4570   -0.3240    0.6200 C   0  0  0  0  0  0  0  0  0  0  0  0
  1  2  1  0
  2  3  1  0
  2  4  1  0
  4  5  2  0
  4 11  1  0
  5  6  1  0
  6  7  2  0
  7  8  1  0
  7  9  1  0
  9 10  1  0
  9 11  2  0
M  END
$$$$
../data/sim29_sdf/CHEMBL2130595.pdb
     RDKit          3D

 12 12  0  0  1  0  0  0  0  0999 V2000
   -2.8090   -0.3020   -0.8700 N   0  0  0  0  0  0  0  0  0  0  0  0
   -2.6290   -0.2050    0.5890 C   0  0  0  0  0  0  0  0  0  0  0  0
   -1.4190    0.5860    0.8890 C   0  0  2  0  0  0  0  0  0  0  0  0
   -1.5740    1.8660    0.3460 O   0  0  0  0  0  0  0  0  0  0  0  0
   -0.1470    0.0630    0.4070 C   0  0  0  0  0  0  0  0  0  0  0  0
    0.0640   -1.1960   -0.0810 C   0  0  0  0  0  0  0  0  0  0  0  0
    1.3060   -1.6040   -0.5160 C   0  0  0  0  0  0  0  0  0  0  0  0
    2.4070   -0.7400   -0.4750 C   0  0  0  0  0  0  0  0  0  0  0  0
    3.6500   -1.1630   -0.9160 O   0  0  0  0  0  0  0  0  0  0  0  0
    2.1950    0.5270    0.0160 C   0  0  0  0  0  0  0  0  0  0  0  0
    3.2470    1.4230    0.0800 O   0  0  0  0  0  0  0  0  0  0  0  0
    0.9420    0.9130    0.4460 C   0  0  0  0  0  0  0  0  0  0  0  0
  1  2  1  0
  2  3  1  0
  3  4  1  6
  3  5  1  0
  5  6  2  0
  5 12  1  0
  6  7  1  0
  7  8  2  0
  8  9  1  0
  8 10  1  0
 10 11  1  0
 10 12  2  0
M  CHG  1   1   1
M  END
$$$$
../data/sim29_sdf/CHEMBL18824.pdb
     RDKit          3D

 12 12  0  0  1  0  0  0  0  0999 V2000
    3.7390    0.1390   -0.2680 N   0  0  0  0  0  0  0  0  0  0  0  0
    2.3970   -0.4090   -0.5140 C   0  0  0  0  0  0  0  0  0  0  0  0
    1.4570    0.3760    0.3540 C   0  0  1  0  0  0  0  0  0  0  0  0
    1.5810    1.7240   -0.0540 O   0  0  0  0  0  0  0  0  0  0  0  0
    0.0620   -0.0190    0.1290 C   0  0  0  0  0  0  0  0  0  0  0  0
   -0.2670   -1.2160   -0.4620 C   0  0  0  0  0  0  0  0  0  0  0  0
   -1.5880   -1.5500   -0.6540 C   0  0  0  0  0  0  0  0  0  0  0  0
   -2.5930   -0.6980   -0.2610 C   0  0  0  0  0  0  0  0  0  0  0  0
   -3.9330   -1.0590   -0.4670 O   0  0  0  0  0  0  0  0  0  0  0  0
   -2.2790    0.4860    0.3240 C   0  0  0  0  0  0  0  0  0  0  0  0
   -3.2890    1.3550    0.7250 O   0  0  0  0  0  0  0  0  0  0  0  0
   -0.9770    0.8200    0.5160 C   0  0  0  0  0  0  0  0  0  0  0  0
  1  2  1  0
  2  3  1  0
  3  4  1  6
  3  5  1  0
  5  6  2  0
  5 12  1  0
  6  7  1  0
  7  8  2  0
  8  9  1  0
  8 10  1  0
 10 11  1  0
 10 12  2  0
M  CHG  1   1   1
M  END
$$$$
../data/sim29_sdf/CHEMBL85811.pdb
     RDKit          3D

 16 17  0  0  0  0  0  0  0  0999 V2000
   -4.9810   -0.1800   -0.4040 N   0  0  0  0  0  0  0  0  0  0  0  0
   -3.5540   -0.1010   -0.3640 C   0  0  0  0  0  0  0  0  0  0  0  0
   -2.7960    0.0790   -1.5000 C   0  0  0  0  0  0  0  0  0  0  0  0
   -1.4070    0.1550   -1.4560 C   0  0  0  0  0  0  0  0  0  0  0  0
   -0.7330    0.0500   -0.2540 C   0  0  0  0  0  0  0  0  0  0  0  0
    0.7260    0.1280   -0.1890 C   0  0  0  0  0  0  0  0  0  0  0  0
    1.4700    0.8990   -1.0640 C   0  0  0  0  0  0  0  0  0  0  0  0
    2.8400    1.0010   -1.0380 C   0  0  0  0  0  0  0  0  0  0  0  0
    3.5310    0.2890   -0.0750 C   0  0  0  0  0  0  0  0  0  0  0  0
    4.9350    0.3940   -0.0480 N   0  0  0  0  0  0  0  0  0  0  0  0
    2.8330   -0.5030    0.8330 C   0  0  0  0  0  0  0  0  0  0  0  0
    3.5990   -1.1850    1.7670 O   0  0  0  0  0  0  0  0  0  0  0  0
    1.4570   -0.5720    0.7640 C   0  0  0  0  0  0  0  0  0  0  0  0
   -1.4990   -0.1300    0.8790 C   0  0  0  0  0  0  0  0  0  0  0  0
   -2.8800   -0.2050    0.8340 C   0  0  0  0  0  0  0  0  0  0  0  0
   -3.6360   -0.3880    1.9880 O   0  0  0  0  0  0  0  0  0  0  0  0
  1  2  1  0
  2  3  2  0
  2 15  1  0
  3  4  1  0
  4  5  2  0
  5  6  1  0
  5 14  1  0
  6  7  2  0
  6 13  1  0
  7  8  1  0
  8  9  2  0
  9 10  1  0
  9 11  1  0
 11 12  1  0
 11 13  2  0
 14 15  2  0
 15 16  1  0
M  END
$$$$
../data/sim29_sdf/CHEMBL2074780.pdb
     RDKit          3D

 13 13  0  0  1  0  0  0  0  0999 V2000
   -3.5880    0.1280    0.7550 O   0  0  0  0  0  0  0  0  0  0  0  0
   -2.7030    0.4280   -0.0870 C   0  0  0  0  0  0  0  0  0  0  0  0
   -2.6720    1.7650   -0.4570 O   0  0  0  0  0  0  0  0  0  0  0  0
   -1.8200   -0.6080   -0.5870 C   0  0  2  0  0  0  0  0  0  0  0  0
   -2.1480   -1.8270    0.0020 O   0  0  0  0  0  0  0  0  0  0  0  0
   -0.3840   -0.3820   -0.3370 C   0  0  0  0  0  0  0  0  0  0  0  0
    0.4570   -1.4590   -0.5470 C   0  0  0  0  0  0  0  0  0  0  0  0
    1.8300   -1.3570   -0.3410 C   0  0  0  0  0  0  0  0  0  0  0  0
    2.3710   -0.1810    0.0760 C   0  0  0  0  0  0  0  0  0  0  0  0
    3.7440   -0.0960    0.2770 O   0  0  0  0  0  0  0  0  0  0  0  0
    1.5370    0.9110    0.2920 C   0  0  0  0  0  0  0  0  0  0  0  0
    2.1240    2.0970    0.7170 O   0  0  0  0  0  0  0  0  0  0  0  0
    0.1730    0.7860    0.0800 C   0  0  0  0  0  0  0  0  0  0  0  0
  1  2  2  0
  2  3  1  0
  2  4  1  0
  4  5  1  1
  4  6  1  0
  6  7  2  0
  6 13  1  0
  7  8  1  0
  8  9  2  0
  9 10  1  0
  9 11  1  0
 11 12  1  0
 11 13  2  0
M  END
$$$$
../data/sim29_sdf/CHEMBL164989.pdb
     RDKit          3D

 11 11  0  0  0  0  0  0  0  0999 V2000
   -2.6930   -0.7040    0.1810 N   0  0  0  0  0  0  0  0  0  0  0  0
   -1.2950   -0.4610    0.0530 C   0  0  0  0  0  0  0  0  0  0  0  0
   -0.3970   -1.4380   -0.3240 C   0  0  0  0  0  0  0  0  0  0  0  0
    0.9610   -1.1660   -0.4390 C   0  0  0  0  0  0  0  0  0  0  0  0
    1.4610    0.0910   -0.1790 C   0  0  0  0  0  0  0  0  0  0  0  0
    2.8580    0.3570   -0.3010 N   0  0  0  0  0  0  0  0  0  0  0  0
    3.3470    1.4780   -0.0750 O   0  0  0  0  0  0  0  0  0  0  0  0
    3.7330   -0.6340   -0.6790 O   0  0  0  0  0  0  0  0  0  0  0  0
    0.5730    1.0710    0.1980 C   0  0  0  0  0  0  0  0  0  0  0  0
   -0.7910    0.7970    0.3130 C   0  0  0  0  0  0  0  0  0  0  0  0
   -1.7040    1.7830    0.6940 O   0  0  0  0  0  0  0  0  0  0  0  0
  1  2  1  0
  2  3  2  0
  2 10  1  0
  3  4  1  0
  4  5  2  0
  5  6  1  0
  5  9  1  0
  6  7  2  0
  6  8  1  0
  9 10  2  0
 10 11  1  0
M  CHG  2   6   1   8  -1
M  END
$$$$
../data/sim29_sdf/CHEMBL2311152.pdb
     RDKit          3D

 12 12  0  0  1  0  0  0  0  0999 V2000
   -1.5660   -0.7160   -0.4250 C   0  0  1  0  0  0  0  0  0  0  0  0
   -1.8130   -2.0280    0.0150 O   0  0  0  0  0  0  0  0  0  0  0  0
   -2.5800    0.2210    0.0930 C   0  0  0  0  0  0  0  0  0  0  0  0
   -2.4780    1.5860   -0.3040 N   0  0  0  0  0  0  0  0  0  0  0  0
   -0.1610   -0.3370   -0.1760 C   0  0  0  0  0  0  0  0  0  0  0  0
    0.2130    0.7920    0.4740 C   0  0  0  0  0  0  0  0  0  0  0  0
    1.5550    1.1360    0.6880 C   0  0  0  0  0  0  0  0  0  0  0  0
    2.5200    0.2800    0.2130 C   0  0  0  0  0  0  0  0  0  0  0  0
    3.8840    0.5560    0.3880 O   0  0  0  0  0  0  0  0  0  0  0  0
    2.1800   -0.8760   -0.4520 C   0  0  0  0  0  0  0  0  0  0  0  0
    3.1870   -1.7210   -0.9200 O   0  0  0  0  0  0  0  0  0  0  0  0
    0.8500   -1.1810   -0.6440 C   0  0  0  0  0  0  0  0  0  0  0  0
  1  2  1  1
  1  3  1  0
  1  5  1  0
  3  4  1  0
  5  6  2  0
  5 12  1  0
  6  7  1  0
  7  8  2  0
  8  9  1  0
  8 10  1  0
 10 11  1  0
 10 12  2  0
M  CHG  1   4   1
M  END
$$$$
../data/sim29_sdf/CHEMBL1160982.pdb
     RDKit          3D

 13 13  0  0  1  0  0  0  0  0999 V2000
   -2.0420    1.0510    1.0050 C   0  0  0  0  0  0  0  0  0  0  0  0
   -2.0520   -0.3120    0.4430 C   0  0  1  0  0  0  0  0  0  0  0  0
   -3.4200   -0.7210    0.1020 N   0  0  0  0  0  0  0  0  0  0  0  0
   -1.2160   -0.5210   -0.7830 C   0  0  1  0  0  0  0  0  0  0  0  0
   -1.6260    0.2030   -1.8760 O   0  0  0  0  0  0  0  0  0  0  0  0
    0.2410   -0.4080   -0.5120 C   0  0  0  0  0  0  0  0  0  0  0  0
    1.0250   -1.5070   -0.2110 C   0  0  0  0  0  0  0  0  0  0  0  0
    2.3790   -1.3970    0.0400 C   0  0  0  0  0  0  0  0  0  0  0  0
    3.0150   -0.1760    0.0020 C   0  0  0  0  0  0  0  0  0  0  0  0
    4.3840   -0.0420    0.2530 O   0  0  0  0  0  0  0  0  0  0  0  0
    2.2450    0.9270   -0.2970 C   0  0  0  0  0  0  0  0  0  0  0  0
    2.9070    2.1550   -0.3310 O   0  0  0  0  0  0  0  0  0  0  0  0
    0.8920    0.8100   -0.5460 C   0  0  0  0  0  0  0  0  0  0  0  0
  2  1  1  6
  2  3  1  0
  2  4  1  0
  4  5  1  6
  4  6  1  0
  6  7  2  0
  6 13  1  0
  7  8  1  0
  8  9  2  0
  9 10  1  0
  9 11  1  0
 11 12  1  0
 11 13  2  0
M  CHG  1   3   1
M  END
$$$$
../data/sim29_sdf/CHEMBL1350643.pdb
     RDKit          3D

 17 18  0  0  0  0  0  0  0  0999 V2000
   -4.3730    2.0340   -1.1900 N   0  0  0  0  0  0  0  0  0  0  0  0
   -3.2910    1.4620   -0.4380 C   0  0  0  0  0  0  0  0  0  0  0  0
   -3.2100    0.1030   -0.2130 C   0  0  0  0  0  0  0  0  0  0  0  0
   -2.1860   -0.4790    0.5050 C   0  0  0  0  0  0  0  0  0  0  0  0
   -1.2070    0.3570    1.0130 C   0  0  0  0  0  0  0  0  0  0  0  0
   -0.0970   -0.2400    1.7870 C   0  0  0  0  0  0  0  0  0  0  0  0
    1.0570   -0.6180    0.9230 C   0  0  0  0  0  0  0  0  0  0  0  0
    2.0860    0.2610    0.6560 C   0  0  0  0  0  0  0  0  0  0  0  0
    3.1530   -0.0820   -0.1400 C   0  0  0  0  0  0  0  0  0  0  0  0
    3.2250   -1.3380   -0.7030 C   0  0  0  0  0  0  0  0  0  0  0  0
    4.3460   -1.6860   -1.5350 N   0  0  0  0  0  0  0  0  0  0  0  0
    2.2150   -2.2290   -0.4530 C   0  0  0  0  0  0  0  0  0  0  0  0
    2.2630   -3.4900   -1.0030 O   0  0  0  0  0  0  0  0  0  0  0  0
    1.1450   -1.8820    0.3470 C   0  0  0  0  0  0  0  0  0  0  0  0
   -1.2820    1.7330    0.7900 C   0  0  0  0  0  0  0  0  0  0  0  0
   -2.3120    2.2870    0.0720 C   0  0  0  0  0  0  0  0  0  0  0  0
   -2.3350    3.6670   -0.1180 O   0  0  0  0  0  0  0  0  0  0  0  0
  1  2  1  0
  2  3  2  0
  2 16  1  0
  3  4  1  0
  4  5  2  0
  5  6  1  0
  5 15  1  0
  6  7  1  0
  7  8  2  0
  7 14  1  0
  8  9  1  0
  9 10  2  0
 10 11  1  0
 10 12  1  0
 12 13  1  0
 12 14  2  0
 15 16  2  0
 16 17  1  0
M  END
$$$$
../data/sim29_sdf/CHEMBL1612659.pdb
     RDKit          3D

 13 13  0  0  1  0  0  0  0  0999 V2000
   -2.0040    0.3530   -1.2620 C   0  0  0  0  0  0  0  0  0  0  0  0
   -2.1220   -0.5320   -0.0630 C   0  0  2  0  0  0  0  0  0  0  0  0
   -3.4650   -0.4220    0.4720 N   0  0  0  0  0  0  0  0  0  0  0  0
   -1.0970   -0.1030    0.9770 C   0  0  2  0  0  0  0  0  0  0  0  0
   -1.3170    1.2290    1.3600 O   0  0  0  0  0  0  0  0  0  0  0  0
    0.2670   -0.1660    0.4240 C   0  0  0  0  0  0  0  0  0  0  0  0
    0.5540   -0.8370   -0.7450 C   0  0  0  0  0  0  0  0  0  0  0  0
    1.8510   -0.8600   -1.2140 C   0  0  0  0  0  0  0  0  0  0  0  0
    2.8500   -0.2070   -0.5000 C   0  0  0  0  0  0  0  0  0  0  0  0
    4.1640   -0.2070   -0.9360 O   0  0  0  0  0  0  0  0  0  0  0  0
    2.5690    0.4650    0.6690 C   0  0  0  0  0  0  0  0  0  0  0  0
    3.5770    1.1070    1.3620 O   0  0  0  0  0  0  0  0  0  0  0  0
    1.2830    0.4870    1.1300 C   0  0  0  0  0  0  0  0  0  0  0  0
  2  1  1  6
  2  3  1  0
  2  4  1  0
  4  5  1  6
  4  6  1  0
  6  7  2  0
  6 13  1  0
  7  8  1  0
  8  9  2  0
  9 10  1  0
  9 11  1  0
 11 12  1  0
 11 13  2  0
M  CHG  1   3   1
M  END
$$$$
../data/sim29_sdf/CHEMBL1462.pdb
     RDKit          3D

 11 11  0  0  0  0  0  0  0  0999 V2000
   -2.7530    1.0170   -0.2360 N   0  0  0  0  0  0  0  0  0  0  0  0
   -1.4120    0.5560   -0.1200 C   0  0  0  0  0  0  0  0  0  0  0  0
   -0.3660    1.3600   -0.5220 C   0  0  0  0  0  0  0  0  0  0  0  0
    0.9320    0.9060   -0.4070 C   0  0  0  0  0  0  0  0  0  0  0  0
    1.2220   -0.3400    0.1030 C   0  0  0  0  0  0  0  0  0  0  0  0
    2.5800   -0.8410    0.2350 C   0  0  0  0  0  0  0  0  0  0  0  0
    2.8170   -1.9780    0.7010 O   0  0  0  0  0  0  0  0  0  0  0  0
    3.6420   -0.0580   -0.1590 O   0  0  0  0  0  0  0  0  0  0  0  0
    0.1580   -1.1320    0.5010 C   0  0  0  0  0  0  0  0  0  0  0  0
   -1.1440   -0.6900    0.3910 C   0  0  0  0  0  0  0  0  0  0  0  0
   -2.2060   -1.5120    0.8010 O   0  0  0  0  0  0  0  0  0  0  0  0
  1  2  1  0
  2  3  2  0
  2 10  1  0
  3  4  1  0
  4  5  2  0
  5  6  1  0
  5  9  1  0
  6  7  2  0
  6  8  1  0
  9 10  2  0
 10 11  1  0
M  END
$$$$
../data/sim29_sdf/CHEMBL3273169.pdb
     RDKit          3D

 12 12  0  0  1  0  0  0  0  0999 V2000
   -3.5910    0.5970    0.6260 N   0  0  0  0  0  0  0  0  0  0  0  0
   -2.1610    0.6470    0.5920 C   0  0  0  0  0  0  0  0  0  0  0  0
   -1.5580   -0.3930   -0.3240 C   0  0  2  0  0  0  0  0  0  0  0  0
   -1.8950   -1.6890    0.0610 O   0  0  0  0  0  0  0  0  0  0  0  0
   -0.0860   -0.1980   -0.3030 C   0  0  0  0  0  0  0  0  0  0  0  0
    0.5080    0.4470   -1.3640 C   0  0  0  0  0  0  0  0  0  0  0  0
    1.8660    0.6300   -1.3500 C   0  0  0  0  0  0  0  0  0  0  0  0
    2.6770    0.1990   -0.3200 C   0  0  0  0  0  0  0  0  0  0  0  0
    4.0690    0.4050   -0.3410 O   0  0  0  0  0  0  0  0  0  0  0  0
    2.0620   -0.4420    0.7270 C   0  0  0  0  0  0  0  0  0  0  0  0
    2.8090   -0.9070    1.8030 O   0  0  0  0  0  0  0  0  0  0  0  0
    0.7070   -0.6320    0.7280 C   0  0  0  0  0  0  0  0  0  0  0  0
  1  2  1  0
  2  3  1  0
  3  4  1  1
  3  5  1  0
  5  6  2  0
  5 12  1  0
  6  7  1  0
  7  8  2  0
  8  9  1  0
  8 10  1  0
 10 11  1  0
 10 12  2  0
M  CHG  1   1   1
M  END
$$$$
../data/sim29_sdf/CHEMBL1437.pdb
     RDKit          3D

 12 12  0  0  1  0  0  0  0  0999 V2000
   -3.5260    0.9430   -0.0230 N   0  0  0  0  0  0  0  0  0  0  0  0
   -2.0910    0.9950    0.1200 C   0  0  0  0  0  0  0  0  0  0  0  0
   -1.5180   -0.2160   -0.6100 C   0  0  2  0  0  0  0  0  0  0  0  0
   -2.0460   -1.3620   -0.0130 O   0  0  0  0  0  0  0  0  0  0  0  0
   -0.0440   -0.2860   -0.4450 C   0  0  0  0  0  0  0  0  0  0  0  0
    0.6320   -1.4510   -0.6930 C   0  0  0  0  0  0  0  0  0  0  0  0
    2.0070   -1.5590   -0.5520 C   0  0  0  0  0  0  0  0  0  0  0  0
    2.7290   -0.4530   -0.1460 C   0  0  0  0  0  0  0  0  0  0  0  0
    4.0890   -0.5180    0.0050 O   0  0  0  0  0  0  0  0  0  0  0  0
    2.0670    0.7420    0.1120 C   0  0  0  0  0  0  0  0  0  0  0  0
    2.8090    1.8480    0.5200 O   0  0  0  0  0  0  0  0  0  0  0  0
    0.6830    0.8110   -0.0420 C   0  0  0  0  0  0  0  0  0  0  0  0
  1  2  1  0
  2  3  1  0
  3  4  1  1
  3  5  1  0
  5  6  2  0
  5 12  1  0
  6  7  1  0
  7  8  2  0
  8  9  1  0
  8 10  1  0
 10 11  1  0
 10 12  2  0
M  CHG  1   1   1
M  END
$$$$
../data/sim29_sdf/CHEMBL270197.pdb
     RDKit          3D

  9  9  0  0  0  0  0  0  0  0999 V2000
   -2.3090   -0.8950   -0.0700 N   0  0  0  0  0  0  0  0  0  0  0  0
   -0.9420   -0.4660   -0.0580 C   0  0  0  0  0  0  0  0  0  0  0  0
    0.0980   -1.3700   -0.0210 C   0  0  0  0  0  0  0  0  0  0  0  0
    1.4130   -0.9530   -0.0100 C   0  0  0  0  0  0  0  0  0  0  0  0
    1.7630    0.3810   -0.0350 C   0  0  0  0  0  0  0  0  0  0  0  0
    3.0900    0.7940   -0.0240 O   0  0  0  0  0  0  0  0  0  0  0  0
    0.7270    1.2860   -0.0720 C   0  0  0  0  0  0  0  0  0  0  0  0
   -0.6130    0.8710   -0.0830 C   0  0  0  0  0  0  0  0  0  0  0  0
   -1.6260    1.8030   -0.1210 O   0  0  0  0  0  0  0  0  0  0  0  0
  1  2  1  0
  2  3  2  0
  2  8  1  0
  3  4  1  0
  4  5  2  0
  5  6  1  0
  5  7  1  0
  7  8  2  0
  8  9  1  0
M  END
$$$$
../data/sim29_sdf/CHEMBL3248963.pdb
     RDKit          3D

 12 12  0  0  1  0  0  0  0  0999 V2000
   -2.2570    1.2460    0.6620 N   0  0  0  0  0  0  0  0  0  0  0  0
   -2.3530    0.4600   -0.5320 C   0  0  0  0  0  0  0  0  0  0  0  0
   -1.6190   -0.8290   -0.3430 C   0  0  2  0  0  0  0  0  0  0  0  0
   -2.1880   -1.5260    0.7220 O   0  0  0  0  0  0  0  0  0  0  0  0
   -0.1670   -0.6500   -0.1600 C   0  0  0  0  0  0  0  0  0  0  0  0
    0.6440   -1.6800    0.2590 C   0  0  0  0  0  0  0  0  0  0  0  0
    2.0030   -1.5050    0.4290 C   0  0  0  0  0  0  0  0  0  0  0  0
    2.5500   -0.2480    0.1650 C   0  0  0  0  0  0  0  0  0  0  0  0
    3.8940   -0.0820    0.3350 O   0  0  0  0  0  0  0  0  0  0  0  0
    1.7610    0.8000   -0.2550 C   0  0  0  0  0  0  0  0  0  0  0  0
    2.3440    2.0340   -0.5060 O   0  0  0  0  0  0  0  0  0  0  0  0
    0.3950    0.5810   -0.4130 C   0  0  0  0  0  0  0  0  0  0  0  0
  1  2  1  0
  2  3  1  0
  3  4  1  1
  3  5  1  0
  5  6  2  0
  5 12  1  0
  6  7  1  0
  7  8  2  0
  8  9  1  0
  8 10  1  0
 10 11  1  0
 10 12  2  0
M  CHG  1   1   1
M  END
$$$$
../data/sim29_sdf/CHEMBL14927.pdb
     RDKit          3D

 22 23  0  0  1  0  0  0  0  0999 V2000
   -2.6390    2.4120    1.0410 C   0  0  0  0  0  0  0  0  0  0  0  0
   -1.4870    2.4450    0.0060 C   0  0  0  0  0  0  0  0  0  0  0  0
   -0.4990    1.4090    0.3890 C   0  0  1  0  0  0  0  0  0  0  0  0
   -1.2190    0.0930    0.4010 C   0  0  0  0  0  0  0  0  0  0  0  0
   -1.3430   -0.6080    1.5780 C   0  0  0  0  0  0  0  0  0  0  0  0
   -2.0100   -1.8370    1.6150 C   0  0  0  0  0  0  0  0  0  0  0  0
   -2.5520   -2.3620    0.4660 C   0  0  0  0  0  0  0  0  0  0  0  0
   -3.2130   -3.5850    0.5150 O   0  0  0  0  0  0  0  0  0  0  0  0
   -2.4350   -1.6720   -0.7180 C   0  0  0  0  0  0  0  0  0  0  0  0
   -2.9950   -2.2170   -1.8940 N   0  0  0  0  0  0  0  0  0  0  0  0
   -1.7640   -0.4430   -0.7350 C   0  0  0  0  0  0  0  0  0  0  0  0
    0.6840    1.2780   -0.4900 C   0  0  1  0  0  0  0  0  0  0  0  0
    1.5720    2.4430   -0.6600 C   0  0  0  0  0  0  0  0  0  0  0  0
    0.9940    3.6800   -1.2660 C   0  0  0  0  0  0  0  0  0  0  0  0
    1.5490    0.1490    0.0200 C   0  0  0  0  0  0  0  0  0  0  0  0
    2.1220    0.2230    1.2650 C   0  0  0  0  0  0  0  0  0  0  0  0
    2.9260   -0.8060    1.7620 C   0  0  0  0  0  0  0  0  0  0  0  0
    3.1450   -1.9180    0.9780 C   0  0  0  0  0  0  0  0  0  0  0  0
    3.9310   -2.9830    1.3990 O   0  0  0  0  0  0  0  0  0  0  0  0
    2.5750   -2.0170   -0.2890 C   0  0  0  0  0  0  0  0  0  0  0  0
    2.7820   -3.1450   -1.1140 N   0  0  0  0  0  0  0  0  0  0  0  0
    1.7770   -0.9630   -0.7460 C   0  0  0  0  0  0  0  0  0  0  0  0
  1  2  1  0
  3  2  1  6
  3  4  1  0
  3 12  1  0
  4  5  2  0
  4 11  1  0
  5  6  1  0
  6  7  2  0
  7  8  1  0
  7  9  1  0
  9 10  1  0
  9 11  2  0
 12 13  1  1
 12 15  1  0
 13 14  1  0
 15 16  2  0
 15 22  1  0
 16 17  1  0
 17 18  2  0
 18 19  1  0
 18 20  1  0
 20 21  1  0
 20 22  2  0
M  END
$$$$
../data/sim29_sdf/CHEMBL1256471.pdb
     RDKit          3D

 13 13  0  0  1  0  0  0  0  0999 V2000
   -2.1850   -0.1950    1.4840 C   0  0  0  0  0  0  0  0  0  0  0  0
   -2.1020    0.4680    0.1240 C   0  0  1  0  0  0  0  0  0  0  0  0
   -1.6460    1.8250    0.2120 N   0  0  0  0  0  0  0  0  0  0  0  0
   -1.3410   -0.3280   -0.8690 C   0  0  2  0  0  0  0  0  0  0  0  0
   -1.8600   -1.6300   -0.9250 O   0  0  0  0  0  0  0  0  0  0  0  0
    0.1150   -0.3250   -0.7500 C   0  0  0  0  0  0  0  0  0  0  0  0
    0.8500   -1.0990   -1.6440 C   0  0  0  0  0  0  0  0  0  0  0  0
    2.2070   -1.1760   -1.6170 C   0  0  0  0  0  0  0  0  0  0  0  0
    2.9180   -0.4690   -0.6740 C   0  0  0  0  0  0  0  0  0  0  0  0
    4.3210   -0.5590   -0.6570 O   0  0  0  0  0  0  0  0  0  0  0  0
    2.2310    0.3100    0.2320 C   0  0  0  0  0  0  0  0  0  0  0  0
    2.9710    1.0150    1.1750 O   0  0  0  0  0  0  0  0  0  0  0  0
    0.8410    0.3720    0.1820 C   0  0  0  0  0  0  0  0  0  0  0  0
  2  1  1  1
  2  3  1  0
  2  4  1  0
  4  5  1  1
  4  6  1  0
  6  7  2  0
  6 13  1  0
  7  8  1  0
  8  9  2  0
  9 10  1  0
  9 11  1  0
 11 12  1  0
 11 13  2  0
M  CHG  1   3   1
M  END
$$$$
../data/sim29_sdf/CHEMBL3637795.pdb
     RDKit          3D

 20 21  0  0  1  0  0  0  0  0999 V2000
    5.8350    1.0500    0.8380 N   0  0  0  0  0  0  0  0  0  0  0  0
    4.6510    0.4510    0.3480 C   0  0  0  0  0  0  0  0  0  0  0  0
    3.6870    1.2610   -0.2090 C   0  0  0  0  0  0  0  0  0  0  0  0
    2.5260    0.7090   -0.6950 C   0  0  0  0  0  0  0  0  0  0  0  0
    2.3130   -0.6460   -0.6330 C   0  0  0  0  0  0  0  0  0  0  0  0
    1.0490   -1.1900   -1.1710 C   0  0  2  0  0  0  0  0  0  0  0  0
    0.7970   -0.5920   -2.3870 O   0  0  0  0  0  0  0  0  0  0  0  0
   -0.0840   -1.1440   -0.2090 C   0  0  0  0  0  0  0  0  0  0  0  0
   -0.5520    0.1200    0.1730 N   0  0  0  0  0  0  0  0  0  0  0  0
   -1.2040    0.9310   -0.7680 C   0  0  0  0  0  0  0  0  0  0  0  0
   -2.5530    0.4610   -1.2470 C   0  0  0  0  0  0  0  0  0  0  0  0
   -3.5370    0.3380   -0.1430 C   0  0  0  0  0  0  0  0  0  0  0  0
   -4.3260    1.4300    0.1990 C   0  0  0  0  0  0  0  0  0  0  0  0
   -5.2570    1.3650    1.2150 C   0  0  0  0  0  0  0  0  0  0  0  0
   -5.4410    0.2040    1.9360 C   0  0  0  0  0  0  0  0  0  0  0  0
   -4.6640   -0.8850    1.6050 C   0  0  0  0  0  0  0  0  0  0  0  0
   -3.7280   -0.8150    0.5810 C   0  0  0  0  0  0  0  0  0  0  0  0
    3.2870   -1.4410   -0.0730 C   0  0  0  0  0  0  0  0  0  0  0  0
    4.4590   -0.9230    0.4220 C   0  0  0  0  0  0  0  0  0  0  0  0
    5.4560   -1.6900    0.9900 O   0  0  0  0  0  0  0  0  0  0  0  0
  1  2  1  0
  2  3  2  0
  2 19  1  0
  3  4  1  0
  4  5  2  0
  5  6  1  0
  5 18  1  0
  6  7  1  6
  6  8  1  0
  8  9  1  0
  9 10  1  0
 10 11  1  0
 11 12  1  0
 12 13  2  0
 12 17  1  0
 13 14  1  0
 14 15  2  0
 15 16  1  0
 16 17  2  0
 18 19  2  0
 19 20  1  0
M  CHG  1   9   1
M  END
$$$$
