../data/sim100/2.pdb


 10 10  0  0  0  0  0  0  0  0999 V2000
   69.1667   46.7012   55.5022 O   0  0  0  0  0  0  0  0  0  0  0  0
   68.8431   47.6478   54.5078 C   0  0  0  0  0  0  0  0  0  0  0  0
   69.0861   47.0340   53.1915 C   0  0  0  0  0  0  0  0  0  0  0  0
   69.2851   47.8079   52.1179 C   0  0  0  0  0  0  0  0  0  0  0  0
   69.2442   49.2743   52.3388 C   0  0  0  0  0  0  0  0  0  0  0  0
   69.6814   49.9950   51.2542 O   0  0  0  0  0  0  0  0  0  0  0  0
   70.1094   49.5844   53.5267 C   0  0  0  0  0  0  0  0  0  0  0  0
   71.4256   49.2547   53.1906 O   0  0  0  0  0  0  0  0  0  0  0  0
   69.6285   48.8910   54.7598 C   0  0  0  0  0  0  0  0  0  0  0  0
   68.7631   49.7957   55.4212 O   0  0  0  0  0  0  0  0  0  0  0  0
  2  1  1  0  0  0
  2  3  1  0  0  0
  2  9  1  0  0  0
  3  4  2  0  0  0
  4  5  1  0  0  0
  5  6  1  0  0  0
  5  7  1  0  0  0
  7  8  1  0  0  0
  7  9  1  0  0  0
  9 10  1  0  0  0
M  END
> <minimizedAffinity>
-4.84136

$$$$
../data/sim100/3.pdb


 12 12  0  0  0  0  0  0  0  0999 V2000
   73.7704   52.9830   53.2857 O   0  0  0  0  0  0  0  0  0  0  0  0
   74.2059   52.7391   54.6053 C   0  0  0  0  0  0  0  0  0  0  0  0
   73.7250   53.7653   55.5474 C   0  0  0  0  0  0  0  0  0  0  0  0
   73.3581   54.9174   54.8110 O   0  0  0  0  0  0  0  0  0  0  0  0
   72.5758   53.4048   56.4076 C   0  0  0  0  0  0  0  0  0  0  0  0
   72.6168   54.1922   57.5719 O   0  0  0  0  0  0  0  0  0  0  0  0
   72.5725   51.9652   56.8690 C   0  0  0  0  0  0  0  0  0  0  0  0
   73.7963   51.7630   57.5374 O   0  0  0  0  0  0  0  0  0  0  0  0
   72.5553   51.1314   55.5830 C   0  0  0  0  0  0  0  0  0  0  0  0
   72.3447   49.8238   55.9207 O   0  0  0  0  0  0  0  0  0  0  0  0
   73.8921   51.3299   54.9365 C   0  0  0  0  0  0  0  0  0  0  0  0
   73.8942   50.5847   53.7455 O   0  0  0  0  0  0  0  0  0  0  0  0
  2  1  1  0  0  0
  2  3  1  0  0  0
  2 11  1  0  0  0
  3  4  1  0  0  0
  3  5  1  0  0  0
  5  6  1  0  0  0
  5  7  1  0  0  0
  7  8  1  0  0  0
  7  9  1  0  0  0
  9 10  1  0  0  0
  9 11  1  0  0  0
 11 12  1  0  0  0
M  END
> <minimizedAffinity>
-5.74053

$$$$
../data/sim100/4.pdb


  4  3  0  0  0  0  0  0  0  0999 V2000
   69.7729   48.2361   52.9058 Br  0  0  0  0  0  0  0  0  0  0  0  0
   68.2974   47.2909   53.7139 C   0  0  0  0  0  0  0  0  0  0  0  0
   68.8315   46.5547   55.4236 Br  0  0  0  0  0  0  0  0  0  0  0  0
   67.8445   45.8117   52.5545 Br  0  0  0  0  0  0  0  0  0  0  0  0
  1  2  1  0  0  0
  2  3  1  0  0  0
  2  4  1  0  0  0
M  END
> <minimizedAffinity>
-2.43473

$$$$
../data/sim100/5.pdb


  4  3  0  0  0  0  0  0  0  0999 V2000
   69.1837   48.9096   53.4821 C   0  0  0  0  0  0  0  0  0  0  0  0
   69.9753   48.1827   52.4506 C   0  0  0  0  0  0  0  0  0  0  0  0
   69.2335   46.9254   52.0174 C   0  0  0  0  0  0  0  0  0  0  0  0
   70.2505   48.9047   51.3133 O   0  0  0  0  0  0  0  0  0  0  0  0
  1  2  1  0  0  0
  2  3  1  0  0  0
  2  4  1  0  0  0
M  END
> <minimizedAffinity>
-2.81784

$$$$
../data/sim100/6.pdb


  4  3  0  0  0  0  0  0  0  0999 V2000
   68.3708   46.4134   53.7773 C   0  0  0  0  0  0  0  0  0  0  0  0
   68.5948   46.7663   52.5351 C   0  0  0  0  0  0  0  0  0  0  0  0
   69.9251   47.8080   52.1449 Cl  0  0  0  0  0  0  0  0  0  0  0  0
   67.5554   46.1899   51.2715 Cl  0  0  0  0  0  0  0  0  0  0  0  0
  1  2  2  0  0  0
  2  3  1  0  0  0
  2  4  1  0  0  0
M  END
> <minimizedAffinity>
-2.44847

$$$$
../data/sim100/7.pdb


  4  3  0  0  0  0  0  0  0  0999 V2000
   70.4375   48.7349   68.2965 C   0  0  0  0  0  0  0  0  0  0  0  0
   70.1675   48.9949   67.0312 C   0  0  0  0  0  0  0  0  0  0  0  0
   68.9320   49.4170   66.6632 F   0  0  0  0  0  0  0  0  0  0  0  0
   71.0858   48.8595   66.0424 F   0  0  0  0  0  0  0  0  0  0  0  0
  1  2  2  0  0  0
  2  3  1  0  0  0
  2  4  1  0  0  0
M  END
> <minimizedAffinity>
-2.89420

$$$$
../data/sim100/8.pdb


  4  3  0  0  0  0  0  0  0  0999 V2000
   68.0487   46.6339   54.0482 C   0  0  0  0  0  0  0  0  0  0  0  0
   68.7671   46.5370   52.7165 C   0  0  0  0  0  0  0  0  0  0  0  0
   67.7730   46.2434   51.6232 C   0  0  0  0  0  0  0  0  0  0  0  0
   69.8115   48.1109   52.3525 Br  0  0  0  0  0  0  0  0  0  0  0  0
  1  2  1  0  0  0
  2  3  1  0  0  0
  2  4  1  0  0  0
M  END
> <minimizedAffinity>
-2.53840

$$$$
../data/sim100/9.pdb


 10 10  0  0  0  0  0  0  0  0999 V2000
   68.5815   46.6933   51.9379 C   0  0  0  0  0  0  0  0  0  0  0  0
   69.0413   47.5956   52.9849 C   0  0  0  0  0  0  0  0  0  0  0  0
   68.9225   47.2774   54.2488 C   0  0  0  0  0  0  0  0  0  0  0  0
   68.3234   46.0069   54.7272 C   0  0  0  0  0  0  0  0  0  0  0  0
   69.4137   48.2184   55.2760 C   0  0  0  0  0  0  0  0  0  0  0  0
   68.9763   47.8802   56.5533 O   0  0  0  0  0  0  0  0  0  0  0  0
   69.0236   49.5929   54.8913 C   0  0  0  0  0  0  0  0  0  0  0  0
   69.1364   49.9384   53.6106 C   0  0  0  0  0  0  0  0  0  0  0  0
   69.6533   48.9116   52.6264 C   0  0  0  0  0  0  0  0  0  0  0  0
   71.0237   48.8444   52.6256 O   0  0  0  0  0  0  0  0  0  0  0  0
  1  2  1  0  0  0
  2  3  2  0  0  0
  2  9  1  0  0  0
  3  4  1  0  0  0
  3  5  1  0  0  0
  5  6  1  0  0  0
  5  7  1  0  0  0
  7  8  2  0  0  0
  8  9  1  0  0  0
  9 10  1  0  0  0
M  END
> <minimizedAffinity>
-5.43116

$$$$
../data/sim100/10.pdb


 10 10  0  0  0  0  0  0  0  0999 V2000
   72.0090   50.5124   54.1163 N   0  0  0  0  0  0  0  0  0  0  0  0
   72.4577   50.9972   55.4003 C   0  0  0  0  0  0  0  0  0  0  0  0
   71.7196   52.1651   55.8843 C   0  0  0  0  0  0  0  0  0  0  0  0
   72.1500   53.4222   55.8506 C   0  0  0  0  0  0  0  0  0  0  0  0
   73.4837   53.7876   55.2936 C   0  0  0  0  0  0  0  0  0  0  0  0
   74.3085   54.2010   56.3342 O   0  0  0  0  0  0  0  0  0  0  0  0
   74.1182   52.6578   54.5453 C   0  0  0  0  0  0  0  0  0  0  0  0
   73.6637   52.5945   53.2418 O   0  0  0  0  0  0  0  0  0  0  0  0
   73.9230   51.3469   55.2914 C   0  0  0  0  0  0  0  0  0  0  0  0
   74.6393   50.3739   54.6163 O   0  0  0  0  0  0  0  0  0  0  0  0
  2  1  1  0  0  0
  2  3  1  0  0  0
  2  9  1  0  0  0
  3  4  2  0  0  0
  4  5  1  0  0  0
  5  6  1  0  0  0
  5  7  1  0  0  0
  7  8  1  0  0  0
  7  9  1  0  0  0
  9 10  1  0  0  0
M  CHG 1   1   1
M  END
> <minimizedAffinity>
-4.82101

$$$$
../data/sim100/11.pdb


 19 20  0  0  0  0  0  0  0  0999 V2000
   71.1061   49.6590   53.9127 O   0  0  0  0  0  0  0  0  0  0  0  0
   68.0772   45.4333   53.4649 O   0  0  0  0  0  0  0  0  0  0  0  0
   68.2360   46.8204   53.5398 C   0  0  0  0  0  0  0  0  0  0  0  0
   68.8024   47.2434   54.8420 C   0  0  0  0  0  0  0  0  0  0  0  0
   69.4892   48.3641   54.9462 C   0  0  0  0  0  0  0  0  0  0  0  0
   69.7698   49.2987   53.8236 C   0  0  0  0  0  0  0  0  0  0  0  0
   69.3894   48.7483   52.4929 C   0  0  0  0  0  0  0  0  0  0  0  0
   70.3400   49.0493   51.4957 O   0  0  0  0  0  0  0  0  0  0  0  0
   69.2285   47.2463   52.4785 C   0  0  0  0  0  0  0  0  0  0  0  0
   68.7910   46.9058   51.1961 O   0  0  0  0  0  0  0  0  0  0  0  0
   71.3510   50.5828   54.9244 C   0  0  0  0  0  0  0  0  0  0  0  0
   70.4115   51.7174   54.7108 C   0  0  0  0  0  0  0  0  0  0  0  0
   70.6113   52.8005   55.4541 C   0  0  0  0  0  0  0  0  0  0  0  0
   71.7384   52.7626   56.4062 C   0  0  0  0  0  0  0  0  0  0  0  0
   71.5576   51.9032   57.4613 O   0  0  0  0  0  0  0  0  0  0  0  0
   72.9806   52.3594   55.6017 C   0  0  0  0  0  0  0  0  0  0  0  0
   73.2425   53.3719   54.6629 O   0  0  0  0  0  0  0  0  0  0  0  0
   72.8047   51.0429   54.9088 C   0  0  0  0  0  0  0  0  0  0  0  0
   73.6218   50.0973   55.5257 O   0  0  0  0  0  0  0  0  0  0  0  0
  3  2  1  0  0  0
  3  4  1  0  0  0
  3  9  1  0  0  0
  4  5  2  0  0  0
  5  6  1  0  0  0
  6  1  1  0  0  0
  6  7  1  0  0  0
 11  1  1  0  0  0
 11 12  1  0  0  0
 11 18  1  0  0  0
 12 13  2  0  0  0
 13 14  1  0  0  0
 14 15  1  0  0  0
 14 16  1  0  0  0
 16 17  1  0  0  0
 16 18  1  0  0  0
 18 19  1  0  0  0
  7  8  1  0  0  0
  7  9  1  0  0  0
  9 10  1  0  0  0
M  END
> <minimizedAffinity>
-7.51474

$$$$
../data/sim100/12.pdb


 13 13  0  0  0  0  0  0  0  0999 V2000
   69.9104   49.1275   53.7145 C   0  0  0  0  0  0  0  0  0  0  0  0
   69.0060   48.2978   54.4903 C   0  0  0  0  0  0  0  0  0  0  0  0
   68.4536   47.1661   54.1410 C   0  0  0  0  0  0  0  0  0  0  0  0
   68.7711   46.6530   52.8103 C   0  0  0  0  0  0  0  0  0  0  0  0
   69.5871   47.3195   52.0049 C   0  0  0  0  0  0  0  0  0  0  0  0
   70.2262   48.6020   52.3712 C   0  0  0  0  0  0  0  0  0  0  0  0
   69.8054   49.5487   51.3984 O   0  0  0  0  0  0  0  0  0  0  0  0
   71.0902   49.4248   54.4670 O   0  0  0  0  0  0  0  0  0  0  0  0
   70.6114   51.6914   54.5528 C   0  0  0  0  0  0  0  0  0  0  0  0
   71.5165   50.7519   54.5815 C   0  0  0  0  0  0  0  0  0  0  0  0
   72.9053   51.1033   54.7291 C   0  0  0  0  0  0  0  0  0  0  0  0
   73.2628   51.9019   55.6106 O   0  0  0  0  0  0  0  0  0  0  0  0
   73.8354   50.5484   53.8853 O   0  0  0  0  0  0  0  0  0  0  0  0
  9 10  2  0  0  0
 10  8  1  0  0  0
 10 11  1  0  0  0
  1  8  1  0  0  0
  1  2  1  0  0  0
  1  6  1  0  0  0
  2  3  2  0  0  0
  3  4  1  0  0  0
  4  5  2  0  0  0
  5  6  1  0  0  0
  6  7  1  0  0  0
 11 12  2  0  0  0
 11 13  1  0  0  0
M  END
> <minimizedAffinity>
-5.97773

$$$$
../data/sim100/13.pdb


  6  6  0  0  0  0  0  0  0  0999 V2000
   69.2385   47.7506   52.3169 C   0  0  0  0  0  0  0  0  0  0  0  0
   68.5060   46.7070   51.8049 C   0  0  0  0  0  0  0  0  0  0  0  0
   67.8374   45.8093   52.6110 C   0  0  0  0  0  0  0  0  0  0  0  0
   67.9401   46.0084   53.9930 C   0  0  0  0  0  0  0  0  0  0  0  0
   68.6737   47.0525   54.5130 C   0  0  0  0  0  0  0  0  0  0  0  0
   69.3342   47.9391   53.6797 C   0  0  0  0  0  0  0  0  0  0  0  0
  1  2  2  0  0  0
  1  6  1  0  0  0
  2  3  1  0  0  0
  3  4  2  0  0  0
  4  5  1  0  0  0
  5  6  2  0  0  0
M  END
> <minimizedAffinity>
-3.99572

$$$$
../data/sim100/14.pdb


  2  1  0  0  0  0  0  0  0  0999 V2000
   69.7350   48.9873   66.6610 O   0  0  0  0  0  0  0  0  0  0  0  0
   70.4300   48.8032   68.2116 Cl  0  0  0  0  0  0  0  0  0  0  0  0
  1  2  1  0  0  0
M  END
> <minimizedAffinity>
-1.82629

$$$$
../data/sim100/15.pdb


  4  3  0  0  0  0  0  0  0  0999 V2000
   69.7881   49.6218   51.3503 O   0  0  0  0  0  0  0  0  0  0  0  0
   69.8773   48.9585   52.5662 C   0  0  0  0  0  0  0  0  0  0  0  0
   69.3513   47.5397   52.4743 C   0  0  0  0  0  0  0  0  0  0  0  0
   69.8420   47.0079   51.2679 O   0  0  0  0  0  0  0  0  0  0  0  0
  1  2  1  0  0  0
  2  3  1  0  0  0
  3  4  1  0  0  0
M  END
> <minimizedAffinity>
-2.71265

$$$$
../data/sim100/16.pdb


  6  5  0  0  0  0  0  0  0  0999 V2000
   69.8283   47.8231   52.1929 Br  0  0  0  0  0  0  0  0  0  0  0  0
   68.7543   48.3235   53.7331 C   0  0  0  0  0  0  0  0  0  0  0  0
   69.8496   49.0405   55.1350 Br  0  0  0  0  0  0  0  0  0  0  0  0
   68.0170   47.0732   54.1704 C   0  0  0  0  0  0  0  0  0  0  0  0
   67.8793   45.7959   52.7326 Br  0  0  0  0  0  0  0  0  0  0  0  0
   68.9175   46.2993   55.6955 Br  0  0  0  0  0  0  0  0  0  0  0  0
  1  2  1  0  0  0
  2  3  1  0  0  0
  2  4  1  0  0  0
  4  5  1  0  0  0
  4  6  1  0  0  0
M  END
> <minimizedAffinity>
-3.02557

$$$$
../data/sim100/17.pdb


  6  5  0  0  0  0  0  0  0  0999 V2000
   68.4367   46.6446   53.5043 C   0  0  0  0  0  0  0  0  0  0  0  0
   69.2529   46.9560   52.2622 C   0  0  0  0  0  0  0  0  0  0  0  0
   68.4600   47.0757   51.1430 O   0  0  0  0  0  0  0  0  0  0  0  0
   70.0334   48.2181   52.5650 C   0  0  0  0  0  0  0  0  0  0  0  0
   69.2357   49.1807   53.4212 C   0  0  0  0  0  0  0  0  0  0  0  0
   70.2371   48.8568   51.3248 O   0  0  0  0  0  0  0  0  0  0  0  0
  2  1  1  0  0  0
  2  3  1  0  0  0
  2  4  1  0  0  0
  4  5  1  0  0  0
  4  6  1  0  0  0
M  END
> <minimizedAffinity>
-3.75767

$$$$
../data/sim100/18.pdb


 12 12  0  0  0  0  0  0  0  0999 V2000
   67.9649   44.7773   54.7714 O   0  0  0  0  0  0  0  0  0  0  0  0
   67.9973   46.0965   54.3152 C   0  0  0  0  0  0  0  0  0  0  0  0
   68.9061   46.8946   55.1970 C   0  0  0  0  0  0  0  0  0  0  0  0
   68.2024   47.1079   56.4067 O   0  0  0  0  0  0  0  0  0  0  0  0
   69.2174   48.2554   54.6448 C   0  0  0  0  0  0  0  0  0  0  0  0
   70.2297   48.8087   55.4229 F   0  0  0  0  0  0  0  0  0  0  0  0
   69.5666   48.2683   53.1997 C   0  0  0  0  0  0  0  0  0  0  0  0
   70.7844   48.8888   52.9202 O   0  0  0  0  0  0  0  0  0  0  0  0
   69.6114   46.9031   52.5658 C   0  0  0  0  0  0  0  0  0  0  0  0
   69.6495   47.1017   51.1776 O   0  0  0  0  0  0  0  0  0  0  0  0
   68.3984   46.0734   52.8770 C   0  0  0  0  0  0  0  0  0  0  0  0
   67.3628   46.5399   52.0799 F   0  0  0  0  0  0  0  0  0  0  0  0
  2  1  1  0  0  0
  2  3  1  0  0  0
  2 11  1  0  0  0
  3  4  1  0  0  0
  3  5  1  0  0  0
  5  6  1  0  0  0
  5  7  1  0  0  0
  7  8  1  0  0  0
  7  9  1  0  0  0
  9 10  1  0  0  0
  9 11  1  0  0  0
 11 12  1  0  0  0
M  END
> <minimizedAffinity>
-6.15955

$$$$
../data/sim100/19.pdb


  8  7  0  0  0  0  0  0  0  0999 V2000
   70.1264   49.5938   53.6705 C   0  0  0  0  0  0  0  0  0  0  0  0
   71.5037   49.4644   53.4190 O   0  0  0  0  0  0  0  0  0  0  0  0
   71.0022   51.7493   53.7887 O   0  0  0  0  0  0  0  0  0  0  0  0
   69.7856   51.0653   53.7643 C   0  0  0  0  0  0  0  0  0  0  0  0
   69.3360   49.0537   52.4766 C   0  0  0  0  0  0  0  0  0  0  0  0
   69.8198   49.6069   51.2910 O   0  0  0  0  0  0  0  0  0  0  0  0
   69.4746   47.5554   52.4894 C   0  0  0  0  0  0  0  0  0  0  0  0
   69.8781   47.0620   51.2548 O   0  0  0  0  0  0  0  0  0  0  0  0
  3  4  1  0  0  0
  4  1  1  0  0  0
  1  2  1  0  0  0
  1  5  1  0  0  0
  5  6  1  0  0  0
  5  7  1  0  0  0
  7  8  1  0  0  0
M  END
> <minimizedAffinity>
-4.01932

$$$$
../data/sim100/21.pdb


 12 12  0  0  0  0  0  0  0  0999 V2000
   74.1171   50.4225   53.7819 O   0  0  0  0  0  0  0  0  0  0  0  0
   74.0679   51.2102   54.9576 C   0  0  0  0  0  0  0  0  0  0  0  0
   72.9159   50.7482   55.7583 C   0  0  0  0  0  0  0  0  0  0  0  0
   71.8032   50.3806   55.0135 O   0  0  0  0  0  0  0  0  0  0  0  0
   72.6017   51.7467   56.8382 C   0  0  0  0  0  0  0  0  0  0  0  0
   73.7802   51.8865   57.6029 O   0  0  0  0  0  0  0  0  0  0  0  0
   72.2497   53.0686   56.2281 C   0  0  0  0  0  0  0  0  0  0  0  0
   72.0487   53.9585   57.2946 F   0  0  0  0  0  0  0  0  0  0  0  0
   73.3726   53.5914   55.4178 C   0  0  0  0  0  0  0  0  0  0  0  0
   74.2584   54.2581   56.2955 O   0  0  0  0  0  0  0  0  0  0  0  0
   74.0854   52.6268   54.5622 C   0  0  0  0  0  0  0  0  0  0  0  0
   73.6349   52.7536   53.2257 O   0  0  0  0  0  0  0  0  0  0  0  0
  2  1  1  0  0  0
  2  3  1  0  0  0
  2 11  1  0  0  0
  3  4  1  0  0  0
  3  5  1  0  0  0
  5  6  1  0  0  0
  5  7  1  0  0  0
  7  8  1  0  0  0
  7  9  1  0  0  0
  9 10  1  0  0  0
  9 11  1  0  0  0
 11 12  1  0  0  0
M  END
> <minimizedAffinity>
-5.62241

$$$$
../data/sim100/22.pdb


  6  5  0  0  0  0  0  0  0  0999 V2000
   69.8811   47.8772   52.3800 C   0  0  0  0  0  0  0  0  0  0  0  0
   70.2125   48.8098   51.3902 O   0  0  0  0  0  0  0  0  0  0  0  0
   68.1016   46.2862   53.0031 C   0  0  0  0  0  0  0  0  0  0  0  0
   68.8250   46.9809   51.8544 C   0  0  0  0  0  0  0  0  0  0  0  0
   69.5820   48.6062   53.6364 C   0  0  0  0  0  0  0  0  0  0  0  0
   69.2142   50.0272   53.5219 C   0  0  0  0  0  0  0  0  0  0  0  0
  3  4  1  0  0  0
  4  1  1  0  0  0
  1  2  1  0  0  0
  1  5  1  0  0  0
  5  6  1  0  0  0
M  END
> <minimizedAffinity>
-3.60126

$$$$
../data/sim100/24.pdb


  6  5  0  0  0  0  0  0  0  0999 V2000
   68.9470   47.3978   52.2422 C   0  0  0  0  0  0  0  0  0  0  0  0
   69.8749   47.0589   51.2895 O   0  0  0  0  0  0  0  0  0  0  0  0
   67.2739   45.6765   52.0272 N   0  0  0  0  0  0  0  0  0  0  0  0
   68.3338   46.1616   52.8805 C   0  0  0  0  0  0  0  0  0  0  0  0
   69.4951   48.3074   53.3213 C   0  0  0  0  0  0  0  0  0  0  0  0
   70.7451   48.9002   52.8839 N   0  0  0  0  0  0  0  0  0  0  0  0
  3  4  1  0  0  0
  4  1  1  0  0  0
  1  2  1  0  0  0
  1  5  1  0  0  0
  5  6  1  0  0  0
M  CHG 1   3   1
M  CHG 1   6   1
M  END
> <minimizedAffinity>
-3.50418

$$$$
../data/sim100/26.pdb


  6  5  0  0  0  0  0  0  0  0999 V2000
   69.8704   49.5164   51.5297 N   0  0  0  0  0  0  0  0  0  0  0  0
   69.3455   48.9105   52.6675 C   0  0  0  0  0  0  0  0  0  0  0  0
   70.1604   49.1394   53.9290 C   0  0  0  0  0  0  0  0  0  0  0  0
   71.4140   49.5998   53.5135 O   0  0  0  0  0  0  0  0  0  0  0  0
   69.3016   47.3891   52.4750 C   0  0  0  0  0  0  0  0  0  0  0  0
   69.8728   47.0010   51.2907 O   0  0  0  0  0  0  0  0  0  0  0  0
  1  2  1  0  0  0
  2  3  1  0  0  0
  2  5  1  0  0  0
  3  4  1  0  0  0
  5  6  1  0  0  0
M  CHG 1   1   1
M  END
> <minimizedAffinity>
-3.49294

$$$$
../data/sim100/27.pdb


 10 10  0  0  0  0  0  0  0  0999 V2000
   73.9097   50.5416   53.9740 N   0  0  0  0  0  0  0  0  0  0  0  0
   73.7822   51.5573   54.9823 C   0  0  0  0  0  0  0  0  0  0  0  0
   74.1936   52.9083   54.4124 C   0  0  0  0  0  0  0  0  0  0  0  0
   73.5979   52.9894   53.1470 O   0  0  0  0  0  0  0  0  0  0  0  0
   73.4783   53.8946   55.2970 C   0  0  0  0  0  0  0  0  0  0  0  0
   74.2293   54.2098   56.4159 O   0  0  0  0  0  0  0  0  0  0  0  0
   72.1809   53.2222   55.6744 C   0  0  0  0  0  0  0  0  0  0  0  0
   72.0088   53.3056   57.0483 O   0  0  0  0  0  0  0  0  0  0  0  0
   72.2948   51.7909   55.1971 C   0  0  0  0  0  0  0  0  0  0  0  0
   71.6835   51.7569   53.9266 O   0  0  0  0  0  0  0  0  0  0  0  0
  2  1  1  0  0  0
  2  3  1  0  0  0
  2  9  1  0  0  0
  3  4  1  0  0  0
  3  5  1  0  0  0
  5  6  1  0  0  0
  5  7  1  0  0  0
  7  8  1  0  0  0
  7  9  1  0  0  0
  9 10  1  0  0  0
M  CHG 1   1   1
M  END
> <minimizedAffinity>
-5.01354

$$$$
../data/sim100/28.pdb


 12 12  0  0  0  0  0  0  0  0999 V2000
   70.5710   53.6994   56.1071 N   0  0  0  0  0  0  0  0  0  0  0  0
   72.0002   53.7291   56.4528 C   0  0  0  0  0  0  0  0  0  0  0  0
   72.3827   52.4545   57.2054 C   0  0  0  0  0  0  0  0  0  0  0  0
   73.7278   52.6087   57.5469 O   0  0  0  0  0  0  0  0  0  0  0  0
   72.3051   51.3351   56.1991 C   0  0  0  0  0  0  0  0  0  0  0  0
   71.0938   51.2853   55.5293 O   0  0  0  0  0  0  0  0  0  0  0  0
   73.4487   51.4930   55.2408 C   0  0  0  0  0  0  0  0  0  0  0  0
   73.1492   50.6405   54.1488 O   0  0  0  0  0  0  0  0  0  0  0  0
   73.7447   52.8783   54.8334 C   0  0  0  0  0  0  0  0  0  0  0  0
   73.8331   52.8887   53.4181 O   0  0  0  0  0  0  0  0  0  0  0  0
   72.8558   53.9547   55.2688 C   0  0  0  0  0  0  0  0  0  0  0  0
   73.6008   55.1374   55.5026 O   0  0  0  0  0  0  0  0  0  0  0  0
  2  1  1  0  0  0
  2  3  1  0  0  0
  2 11  1  0  0  0
  3  4  1  0  0  0
  3  5  1  0  0  0
  5  6  1  0  0  0
  5  7  1  0  0  0
  7  8  1  0  0  0
  7  9  1  0  0  0
  9 10  1  0  0  0
  9 11  1  0  0  0
 11 12  1  0  0  0
M  CHG 1   1   1
M  END
> <minimizedAffinity>
-5.25565

$$$$
../data/sim100/29.pdb


 14 14  0  0  0  0  0  0  0  0999 V2000
   72.2989   53.2264   56.1939 C   0  0  0  0  0  0  0  0  0  0  0  0
   73.4714   53.7632   55.4166 C   0  0  0  0  0  0  0  0  0  0  0  0
   74.3869   54.2911   56.3460 O   0  0  0  0  0  0  0  0  0  0  0  0
   74.0772   52.7889   54.4803 C   0  0  0  0  0  0  0  0  0  0  0  0
   73.3278   52.7570   53.2993 O   0  0  0  0  0  0  0  0  0  0  0  0
   74.3040   51.4195   55.0165 C   0  0  0  0  0  0  0  0  0  0  0  0
   73.3356   50.9416   56.0424 C   0  0  0  0  0  0  0  0  0  0  0  0
   72.3185   50.1575   55.4619 O   0  0  0  0  0  0  0  0  0  0  0  0
   72.7721   51.9993   56.9236 C   0  0  0  0  0  0  0  0  0  0  0  0
   73.7588   52.3995   57.8225 O   0  0  0  0  0  0  0  0  0  0  0  0
   70.0646   53.1453   56.1930 C   0  0  0  0  0  0  0  0  0  0  0  0
   71.2034   53.0208   55.4046 O   0  0  0  0  0  0  0  0  0  0  0  0
   75.6040   51.3581   55.5166 O   0  0  0  0  0  0  0  0  0  0  0  0
   76.0369   50.0417   55.6715 C   0  0  0  0  0  0  0  0  0  0  0  0
 11 12  1  0  0  0
  1 12  1  0  0  0
  1  2  1  0  0  0
  1  9  1  0  0  0
  2  3  1  0  0  0
  2  4  1  0  0  0
  4  5  1  0  0  0
  4  6  1  0  0  0
  6 13  1  0  0  0
  6  7  1  0  0  0
 13 14  1  0  0  0
  7  8  1  0  0  0
  7  9  1  0  0  0
  9 10  1  0  0  0
M  END
> <minimizedAffinity>
-5.39889

$$$$
../data/sim100/30.pdb


 13 13  0  0  0  0  0  0  0  0999 V2000
   69.0296   46.8872   53.4882 C   0  0  0  0  0  0  0  0  0  0  0  0
   69.7722   47.6070   52.4160 C   0  0  0  0  0  0  0  0  0  0  0  0
   69.5422   47.1132   51.1609 O   0  0  0  0  0  0  0  0  0  0  0  0
   69.3927   49.0652   52.4664 C   0  0  0  0  0  0  0  0  0  0  0  0
   69.8484   49.7147   51.3430 O   0  0  0  0  0  0  0  0  0  0  0  0
   70.0511   49.6052   53.7184 C   0  0  0  0  0  0  0  0  0  0  0  0
   71.4278   49.5470   53.5089 O   0  0  0  0  0  0  0  0  0  0  0  0
   69.6472   48.8723   54.9401 C   0  0  0  0  0  0  0  0  0  0  0  0
   68.9409   49.7902   55.7549 O   0  0  0  0  0  0  0  0  0  0  0  0
   68.8598   47.6368   54.7588 C   0  0  0  0  0  0  0  0  0  0  0  0
   69.1613   46.7679   55.8316 O   0  0  0  0  0  0  0  0  0  0  0  0
   67.5458   45.0549   52.9619 O   0  0  0  0  0  0  0  0  0  0  0  0
   67.6582   46.4190   52.9758 C   0  0  0  0  0  0  0  0  0  0  0  0
 12 13  1  0  0  0
  1 13  1  0  0  0
  1  2  1  0  0  0
  1 10  1  0  0  0
  2  3  1  0  0  0
  2  4  1  0  0  0
  4  5  1  0  0  0
  4  6  1  0  0  0
  6  7  1  0  0  0
  6  8  1  0  0  0
  8  9  1  0  0  0
  8 10  1  0  0  0
 10 11  1  0  0  0
M  END
> <minimizedAffinity>
-6.13400

$$$$
../data/sim100/31.pdb


  2  1  0  0  0  0  0  0  0  0999 V2000
   71.1655   40.7218   47.4385 O   0  0  0  0  0  0  0  0  0  0  0  0
   70.0222   40.9141   47.4009 O   0  0  0  0  0  0  0  0  0  0  0  0
  1  2  2  0  0  0
M  END
> <minimizedAffinity>
-2.01468

$$$$
../data/sim100/32.pdb


  9  9  0  0  0  0  0  0  0  0999 V2000
   69.2917   50.8439   53.3424 C   0  0  0  0  0  0  0  0  0  0  0  0
   70.2873   49.9001   53.9735 C   0  0  0  0  0  0  0  0  0  0  0  0
   70.8193   48.9939   53.0014 O   0  0  0  0  0  0  0  0  0  0  0  0
   69.9652   47.9684   52.5380 C   0  0  0  0  0  0  0  0  0  0  0  0
   70.0667   47.4478   51.4047 O   0  0  0  0  0  0  0  0  0  0  0  0
   68.9195   47.5120   53.4444 C   0  0  0  0  0  0  0  0  0  0  0  0
   68.7652   48.0245   54.6504 C   0  0  0  0  0  0  0  0  0  0  0  0
   69.6830   49.0873   55.0828 C   0  0  0  0  0  0  0  0  0  0  0  0
   70.7780   48.5005   55.7675 O   0  0  0  0  0  0  0  0  0  0  0  0
  2  1  1  0  0  0
  2  3  1  0  0  0
  2  8  1  0  0  0
  3  4  1  0  0  0
  4  5  2  0  0  0
  4  6  1  0  0  0
  6  7  2  0  0  0
  7  8  1  0  0  0
  8  9  1  0  0  0
M  END
> <minimizedAffinity>
-4.62885

$$$$
../data/sim100/34.pdb


  3  2  0  0  0  0  0  0  0  0999 V2000
   68.7091   46.6187   51.9592 C   0  0  0  0  0  0  0  0  0  0  0  0
   69.8261   47.2436   51.4629 O   0  0  0  0  0  0  0  0  0  0  0  0
   70.1235   48.4294   52.1382 C   0  0  0  0  0  0  0  0  0  0  0  0
  1  2  1  0  0  0
  2  3  1  0  0  0
M  END
> <minimizedAffinity>
-2.00316

$$$$
../data/sim100/35.pdb


  4  3  0  0  0  0  0  0  0  0999 V2000
   67.9330   45.8882   52.8750 I   0  0  0  0  0  0  0  0  0  0  0  0
   68.3347   47.6904   53.9618 C   0  0  0  0  0  0  0  0  0  0  0  0
   68.9573   47.2544   55.9534 I   0  0  0  0  0  0  0  0  0  0  0  0
   69.8834   48.7510   52.9361 I   0  0  0  0  0  0  0  0  0  0  0  0
  1  2  1  0  0  0
  2  3  1  0  0  0
  2  4  1  0  0  0
M  END
> <minimizedAffinity>
-2.37137

$$$$
../data/sim100/36.pdb


  4  3  0  0  0  0  0  0  0  0999 V2000
   69.7363   47.8903   52.5494 C   0  0  0  0  0  0  0  0  0  0  0  0
   68.5067   46.9578   53.4998 P   0  0  0  0  0  0  0  0  0  0  0  0
   67.7558   45.5403   52.6218 C   0  0  0  0  0  0  0  0  0  0  0  0
   68.9477   46.6250   55.2398 C   0  0  0  0  0  0  0  0  0  0  0  0
  1  2  1  0  0  0
  2  3  1  0  0  0
  2  4  1  0  0  0
M  END
> <minimizedAffinity>
-1.88929

$$$$
../data/sim100/37.pdb


  3  2  0  0  0  0  0  0  0  0999 V2000
   70.0037   48.3739   52.2231 C   0  0  0  0  0  0  0  0  0  0  0  0
   69.7439   47.1578   51.4959 N   0  0  0  0  0  0  0  0  0  0  0  0
   68.4325   46.6804   51.8486 C   0  0  0  0  0  0  0  0  0  0  0  0
  1  2  1  0  0  0
  2  3  1  0  0  0
M  CHG 1   2   1
M  END
> <minimizedAffinity>
-2.07657

$$$$
../data/sim100/38.pdb


  4  3  0  0  0  0  0  0  0  0999 V2000
   68.0092   46.8903   54.1025 Cl  0  0  0  0  0  0  0  0  0  0  0  0
   68.8318   46.4951   52.5790 C   0  0  0  0  0  0  0  0  0  0  0  0
   69.9135   47.8080   52.0693 Cl  0  0  0  0  0  0  0  0  0  0  0  0
   67.6162   46.2763   51.3002 Cl  0  0  0  0  0  0  0  0  0  0  0  0
  1  2  1  0  0  0
  2  3  1  0  0  0
  2  4  1  0  0  0
M  END
> <minimizedAffinity>
-2.41697

$$$$
../data/sim100/39.pdb


  3  2  0  0  0  0  0  0  0  0999 V2000
   69.5296   47.4142   52.1607 C   0  0  0  0  0  0  0  0  0  0  0  0
   68.6221   46.5217   52.4439 C   0  0  0  0  0  0  0  0  0  0  0  0
   67.7112   45.6224   52.7273 C   0  0  0  0  0  0  0  0  0  0  0  0
  1  2  2  0  0  0
  2  3  2  0  0  0
M  END
> <minimizedAffinity>
-2.15811

$$$$
../data/sim100/40.pdb


  4  3  0  0  0  0  0  0  0  0999 V2000
   69.4382   47.1058   52.0622 C   0  0  0  0  0  0  0  0  0  0  0  0
   68.3391   46.8614   53.0584 C   0  0  0  0  0  0  0  0  0  0  0  0
   68.8491   46.8493   54.4718 C   0  0  0  0  0  0  0  0  0  0  0  0
   67.6900   45.5421   52.6697 C   0  0  0  0  0  0  0  0  0  0  0  0
  1  2  1  0  0  0
  2  3  1  0  0  0
  2  4  1  0  0  0
M  END
> <minimizedAffinity>
-2.71962

$$$$
../data/sim100/41.pdb


  3  2  0  0  0  0  0  0  0  0999 V2000
   68.1909   46.3134   53.5602 C   0  0  0  0  0  0  0  0  0  0  0  0
   69.0594   46.8685   52.0835 S   0  0  0  0  0  0  0  0  0  0  0  0
   70.0242   48.3536   52.3620 C   0  0  0  0  0  0  0  0  0  0  0  0
  1  2  1  0  0  0
  2  3  1  0  0  0
M  END
> <minimizedAffinity>
-1.56622

$$$$
../data/sim100/42.pdb


  4  3  0  0  0  0  0  0  0  0999 V2000
   67.9036   45.8935   52.5696 S   0  0  0  0  0  0  0  0  0  0  0  0
   68.7041   46.8123   53.3489 C   0  0  0  0  0  0  0  0  0  0  0  0
   68.7333   46.6862   55.1474 S   0  0  0  0  0  0  0  0  0  0  0  0
   69.6871   48.0964   52.5808 S   0  0  0  0  0  0  0  0  0  0  0  0
  1  2  2  0  0  0
  2  3  1  0  0  0
  2  4  1  0  0  0
M  END
> <minimizedAffinity>
-1.93574

$$$$
../data/sim100/44.pdb


  4  3  0  0  0  0  0  0  0  0999 V2000
   68.0787   46.4941   51.6045 C   0  0  0  0  0  0  0  0  0  0  0  0
   69.0344   46.8534   52.7364 C   0  0  0  0  0  0  0  0  0  0  0  0
   68.2154   46.9304   54.0018 C   0  0  0  0  0  0  0  0  0  0  0  0
   69.9126   48.3671   52.3669 S   0  0  0  0  0  0  0  0  0  0  0  0
  1  2  1  0  0  0
  2  3  1  0  0  0
  2  4  1  0  0  0
M  END
> <minimizedAffinity>
-2.37590

$$$$
../data/sim100/46.pdb


  4  3  0  0  0  0  0  0  0  0999 V2000
   69.2128   46.8451   51.9861 C   0  0  0  0  0  0  0  0  0  0  0  0
   69.9502   48.0854   52.4467 C   0  0  0  0  0  0  0  0  0  0  0  0
   69.2316   48.6154   53.6893 C   0  0  0  0  0  0  0  0  0  0  0  0
   70.0045   49.1197   51.4791 N   0  0  0  0  0  0  0  0  0  0  0  0
  1  2  1  0  0  0
  2  3  1  0  0  0
  2  4  1  0  0  0
M  CHG 1   4   1
M  END
> <minimizedAffinity>
-2.83920

$$$$
../data/sim100/47.pdb


  3  2  0  0  0  0  0  0  0  0999 V2000
   69.1144   46.8440   52.1340 C   0  0  0  0  0  0  0  0  0  0  0  0
   69.9024   47.4399   51.3199 N   0  0  0  0  0  0  0  0  0  0  0  0
   70.2733   48.7396   51.3929 O   0  0  0  0  0  0  0  0  0  0  0  0
  1  2  2  0  0  0
  2  3  1  0  0  0
M  END
> <minimizedAffinity>
-2.43229

$$$$
../data/sim100/48.pdb


  3  2  0  0  0  0  0  0  0  0999 V2000
   69.4966   47.4129   52.1787 C   0  0  0  0  0  0  0  0  0  0  0  0
   68.4470   46.6775   51.8579 C   0  0  0  0  0  0  0  0  0  0  0  0
   67.7708   45.7594   52.8052 C   0  0  0  0  0  0  0  0  0  0  0  0
  1  2  2  0  0  0
  2  3  1  0  0  0
M  END
> <minimizedAffinity>
-2.18600

$$$$
../data/sim100/49.pdb


  4  3  0  0  0  0  0  0  0  0999 V2000
   67.6603   46.3499   51.3389 Cl  0  0  0  0  0  0  0  0  0  0  0  0
   68.9039   46.5266   52.6032 C   0  0  0  0  0  0  0  0  0  0  0  0
   69.8062   48.2018   52.3045 Br  0  0  0  0  0  0  0  0  0  0  0  0
   68.1209   46.5414   54.3588 Br  0  0  0  0  0  0  0  0  0  0  0  0
  1  2  1  0  0  0
  2  3  1  0  0  0
  2  4  1  0  0  0
M  END
> <minimizedAffinity>
-2.57985

$$$$
../data/sim100/50.pdb


  4  3  0  0  0  0  0  0  0  0999 V2000
   67.8287   46.6639   54.1477 Cl  0  0  0  0  0  0  0  0  0  0  0  0
   68.7690   46.5311   52.6477 C   0  0  0  0  0  0  0  0  0  0  0  0
   67.6227   46.2900   51.2993 Cl  0  0  0  0  0  0  0  0  0  0  0  0
   69.7811   48.1624   52.4142 Br  0  0  0  0  0  0  0  0  0  0  0  0
  1  2  1  0  0  0
  2  3  1  0  0  0
  2  4  1  0  0  0
M  END
> <minimizedAffinity>
-2.52340

$$$$
../data/sim100/51.pdb


  3  2  0  0  0  0  0  0  0  0999 V2000
   70.6365   48.8070   68.3083 C   0  0  0  0  0  0  0  0  0  0  0  0
   69.5532   48.7492   67.5713 C   0  0  0  0  0  0  0  0  0  0  0  0
   69.3561   49.4592   66.3980 O   0  0  0  0  0  0  0  0  0  0  0  0
  1  2  2  0  0  0
  2  3  1  0  0  0
M  END
> <minimizedAffinity>
-2.28927

$$$$
../data/sim100/52.pdb


  8  8  0  0  0  0  0  0  0  0999 V2000
   67.9252   46.0108   55.2125 O   0  0  0  0  0  0  0  0  0  0  0  0
   68.4794   46.6702   54.2978 C   0  0  0  0  0  0  0  0  0  0  0  0
   69.1747   47.9018   54.6493 C   0  0  0  0  0  0  0  0  0  0  0  0
   69.7584   48.5969   53.6880 C   0  0  0  0  0  0  0  0  0  0  0  0
   69.7130   48.1450   52.2849 C   0  0  0  0  0  0  0  0  0  0  0  0
   70.2667   48.8043   51.3731 O   0  0  0  0  0  0  0  0  0  0  0  0
   69.0130   46.9101   51.9518 C   0  0  0  0  0  0  0  0  0  0  0  0
   68.4241   46.2030   52.9026 C   0  0  0  0  0  0  0  0  0  0  0  0
  1  2  2  0  0  0
  2  3  1  0  0  0
  2  8  1  0  0  0
  3  4  2  0  0  0
  4  5  1  0  0  0
  5  6  2  0  0  0
  5  7  1  0  0  0
  7  8  2  0  0  0
M  END
> <minimizedAffinity>
-4.94066

$$$$
../data/sim100/53.pdb


  8  8  0  0  0  0  0  0  0  0999 V2000
   70.1893   48.9738   51.3645 O   0  0  0  0  0  0  0  0  0  0  0  0
   69.6302   48.1121   52.3065 C   0  0  0  0  0  0  0  0  0  0  0  0
   69.0314   46.9350   51.9099 C   0  0  0  0  0  0  0  0  0  0  0  0
   68.4766   46.0799   52.8377 C   0  0  0  0  0  0  0  0  0  0  0  0
   68.4892   46.3527   54.1953 C   0  0  0  0  0  0  0  0  0  0  0  0
   67.9284   45.4882   55.1297 O   0  0  0  0  0  0  0  0  0  0  0  0
   69.0884   47.5327   54.5847 C   0  0  0  0  0  0  0  0  0  0  0  0
   69.6442   48.3884   53.6586 C   0  0  0  0  0  0  0  0  0  0  0  0
  1  2  1  0  0  0
  2  3  2  0  0  0
  2  8  1  0  0  0
  3  4  1  0  0  0
  4  5  2  0  0  0
  5  6  1  0  0  0
  5  7  1  0  0  0
  7  8  2  0  0  0
M  END
> <minimizedAffinity>
-4.93826

$$$$
../data/sim100/55.pdb


  6  5  0  0  0  0  0  0  0  0999 V2000
   67.9612   45.9107   52.4580 C   0  0  0  0  0  0  0  0  0  0  0  0
   68.4459   47.1173   53.2489 C   0  0  0  0  0  0  0  0  0  0  0  0
   68.7084   46.6383   54.6548 C   0  0  0  0  0  0  0  0  0  0  0  0
   69.6738   47.6350   52.5651 C   0  0  0  0  0  0  0  0  0  0  0  0
   69.6744   49.1287   52.3881 C   0  0  0  0  0  0  0  0  0  0  0  0
   69.7190   47.0504   51.2965 O   0  0  0  0  0  0  0  0  0  0  0  0
  1  2  1  0  0  0
  2  3  1  0  0  0
  2  4  1  0  0  0
  4  5  1  0  0  0
  4  6  1  0  0  0
M  END
> <minimizedAffinity>
-3.78569

$$$$
../data/sim100/56.pdb


  6  5  0  0  0  0  0  0  0  0999 V2000
   69.8447   49.3712   51.4103 O   0  0  0  0  0  0  0  0  0  0  0  0
   70.1812   48.4052   52.3390 C   0  0  0  0  0  0  0  0  0  0  0  0
   69.4156   46.8835   51.8326 Cl  0  0  0  0  0  0  0  0  0  0  0  0
   69.7476   48.7996   53.7436 C   0  0  0  0  0  0  0  0  0  0  0  0
   68.6457   47.5837   54.4152 Cl  0  0  0  0  0  0  0  0  0  0  0  0
   68.9067   50.3602   53.7548 Cl  0  0  0  0  0  0  0  0  0  0  0  0
  2  1  1  0  0  0
  2  3  1  0  0  0
  2  4  1  0  0  0
  4  5  1  0  0  0
  4  6  1  0  0  0
M  END
> <minimizedAffinity>
-3.52542

$$$$
../data/sim100/57.pdb


  9  9  0  0  0  0  0  0  0  0999 V2000
   70.2597   48.7330   51.4350 O   0  0  0  0  0  0  0  0  0  0  0  0
   69.4990   47.9258   52.2877 C   0  0  0  0  0  0  0  0  0  0  0  0
   69.5397   48.1150   53.6530 C   0  0  0  0  0  0  0  0  0  0  0  0
   68.7879   47.3182   54.4982 C   0  0  0  0  0  0  0  0  0  0  0  0
   68.8629   47.5465   55.8606 O   0  0  0  0  0  0  0  0  0  0  0  0
   67.9757   46.3118   54.0221 C   0  0  0  0  0  0  0  0  0  0  0  0
   67.9450   46.1348   52.6501 C   0  0  0  0  0  0  0  0  0  0  0  0
   67.1337   45.1261   52.1431 O   0  0  0  0  0  0  0  0  0  0  0  0
   68.6903   46.9233   51.7923 C   0  0  0  0  0  0  0  0  0  0  0  0
  1  2  1  0  0  0
  2  3  2  0  0  0
  2  9  1  0  0  0
  3  4  1  0  0  0
  4  5  1  0  0  0
  4  6  2  0  0  0
  6  7  1  0  0  0
  7  8  1  0  0  0
  7  9  2  0  0  0
M  END
> <minimizedAffinity>
-5.25136

$$$$
../data/sim100/58.pdb


 10 10  0  0  0  0  0  0  0  0999 V2000
   67.9558   45.4373   55.1088 N   0  0  0  0  0  0  0  0  0  0  0  0
   68.4824   46.3708   54.1686 C   0  0  0  0  0  0  0  0  0  0  0  0
   69.2865   47.4157   54.6001 C   0  0  0  0  0  0  0  0  0  0  0  0
   69.7799   48.2988   53.6781 C   0  0  0  0  0  0  0  0  0  0  0  0
   70.6070   49.3887   54.0531 N   0  0  0  0  0  0  0  0  0  0  0  0
   69.4887   48.1612   52.3358 C   0  0  0  0  0  0  0  0  0  0  0  0
   70.0090   49.0852   51.3955 N   0  0  0  0  0  0  0  0  0  0  0  0
   68.6909   47.1291   51.8799 C   0  0  0  0  0  0  0  0  0  0  0  0
   68.1913   46.2313   52.8286 C   0  0  0  0  0  0  0  0  0  0  0  0
   67.3668   45.1481   52.4446 N   0  0  0  0  0  0  0  0  0  0  0  0
  1  2  1  0  0  0
  2  3  2  0  0  0
  2  9  1  0  0  0
  3  4  1  0  0  0
  4  5  1  0  0  0
  4  6  2  0  0  0
  6  7  1  0  0  0
  6  8  1  0  0  0
  8  9  2  0  0  0
  9 10  1  0  0  0
M  END
> <minimizedAffinity>
-5.48589

$$$$
../data/sim100/59.pdb


  8  8  0  0  0  0  0  0  0  0999 V2000
   68.0070   45.2133   55.0446 N   0  0  0  0  0  0  0  0  0  0  0  0
   68.4869   46.2196   54.1489 C   0  0  0  0  0  0  0  0  0  0  0  0
   68.4032   46.0558   52.7817 C   0  0  0  0  0  0  0  0  0  0  0  0
   68.8570   47.0067   51.9185 C   0  0  0  0  0  0  0  0  0  0  0  0
   69.4265   48.1886   52.3629 C   0  0  0  0  0  0  0  0  0  0  0  0
   69.9055   49.1921   51.4788 N   0  0  0  0  0  0  0  0  0  0  0  0
   69.5070   48.3460   53.7311 C   0  0  0  0  0  0  0  0  0  0  0  0
   69.0510   47.3889   54.6109 C   0  0  0  0  0  0  0  0  0  0  0  0
  1  2  1  0  0  0
  2  3  2  0  0  0
  2  8  1  0  0  0
  3  4  1  0  0  0
  4  5  2  0  0  0
  5  6  1  0  0  0
  5  7  1  0  0  0
  7  8  2  0  0  0
M  END
> <minimizedAffinity>
-4.96445

$$$$
../data/sim100/60.pdb


  9  9  0  0  0  0  0  0  0  0999 V2000
   68.3647   46.6584   55.8965 N   0  0  0  0  0  0  0  0  0  0  0  0
   68.4593   46.7516   54.4803 C   0  0  0  0  0  0  0  0  0  0  0  0
   67.7035   45.8625   53.7468 C   0  0  0  0  0  0  0  0  0  0  0  0
   67.7784   45.9340   52.3699 C   0  0  0  0  0  0  0  0  0  0  0  0
   67.0122   45.0303   51.6037 N   0  0  0  0  0  0  0  0  0  0  0  0
   68.6008   46.8846   51.7616 C   0  0  0  0  0  0  0  0  0  0  0  0
   69.3604   47.7802   52.4871 C   0  0  0  0  0  0  0  0  0  0  0  0
   70.1906   48.7402   51.8449 N   0  0  0  0  0  0  0  0  0  0  0  0
   69.2665   47.6869   53.8640 C   0  0  0  0  0  0  0  0  0  0  0  0
  1  2  1  0  0  0
  2  3  2  0  0  0
  2  9  1  0  0  0
  3  4  1  0  0  0
  4  5  1  0  0  0
  4  6  2  0  0  0
  6  7  1  0  0  0
  7  8  1  0  0  0
  7  9  2  0  0  0
M  END
> <minimizedAffinity>
-5.38962

$$$$
../data/sim100/61.pdb


 10 10  0  0  0  0  0  0  0  0999 V2000
   71.0701   53.9215   55.9735 O   0  0  0  0  0  0  0  0  0  0  0  0
   72.3181   53.9066   56.5683 C   0  0  0  0  0  0  0  0  0  0  0  0
   73.3455   54.1788   55.5101 C   0  0  0  0  0  0  0  0  0  0  0  0
   73.7800   52.9712   54.7560 C   0  0  0  0  0  0  0  0  0  0  0  0
   75.0828   52.6526   55.1125 O   0  0  0  0  0  0  0  0  0  0  0  0
   72.8381   51.8033   54.9082 C   0  0  0  0  0  0  0  0  0  0  0  0
   73.2764   50.7350   54.1608 O   0  0  0  0  0  0  0  0  0  0  0  0
   72.5901   51.4278   56.3377 C   0  0  0  0  0  0  0  0  0  0  0  0
   72.5606   52.5995   57.2736 C   0  0  0  0  0  0  0  0  0  0  0  0
   73.7790   52.6540   57.9313 O   0  0  0  0  0  0  0  0  0  0  0  0
  2  1  1  0  0  0
  2  3  1  0  0  0
  2  9  1  0  0  0
  3  4  1  0  0  0
  4  5  1  0  0  0
  4  6  1  0  0  0
  6  7  1  0  0  0
  6  8  1  0  0  0
  8  9  1  0  0  0
  9 10  1  0  0  0
M  END
> <minimizedAffinity>
-4.54009

$$$$
../data/sim100/62.pdb


  6  5  0  0  0  0  0  0  0  0999 V2000
   71.2297   48.9087   52.9410 O   0  0  0  0  0  0  0  0  0  0  0  0
   69.8678   48.7649   52.2626 P   0  0  0  0  0  0  0  0  0  0  0  0
   69.6291   50.0037   51.1558 O   0  0  0  0  0  0  0  0  0  0  0  0
   68.7159   48.7547   53.4907 O   0  0  0  0  0  0  0  0  0  0  0  0
   69.9136   47.2448   51.4860 O   0  0  0  0  0  0  0  0  0  0  0  0
   68.6812   46.8589   51.2689 O   0  0  0  0  0  0  0  0  0  0  0  0
  1  2  2  0  0  0
  2  3  1  0  0  0
  2  4  1  0  0  0
  2  5  1  0  0  0
  5  6  1  0  0  0
M  END
> <minimizedAffinity>
-3.96137

$$$$
../data/sim100/63.pdb


 10  9  0  0  0  0  0  0  0  0999 V2000
   68.8994   47.8933   53.0659 C   0  0  0  0  0  0  0  0  0  0  0  0
   68.8901   47.6497   54.4404 O   0  0  0  0  0  0  0  0  0  0  0  0
   68.8502   46.5817   52.3648 C   0  0  0  0  0  0  0  0  0  0  0  0
   68.2755   46.8153   51.0941 O   0  0  0  0  0  0  0  0  0  0  0  0
   66.9913   45.0835   52.1888 O   0  0  0  0  0  0  0  0  0  0  0  0
   67.9173   45.6166   53.0653 C   0  0  0  0  0  0  0  0  0  0  0  0
   70.1303   48.6978   52.7574 C   0  0  0  0  0  0  0  0  0  0  0  0
   70.0516   49.3807   51.5535 O   0  0  0  0  0  0  0  0  0  0  0  0
   70.4140   49.6943   53.8592 C   0  0  0  0  0  0  0  0  0  0  0  0
   71.7778   49.9853   53.8991 O   0  0  0  0  0  0  0  0  0  0  0  0
  5  6  1  0  0  0
  6  3  1  0  0  0
  3  4  1  0  0  0
  3  1  1  0  0  0
  1  2  1  0  0  0
  1  7  1  0  0  0
  7  8  1  0  0  0
  7  9  1  0  0  0
  9 10  1  0  0  0
M  END
> <minimizedAffinity>
-4.56824

$$$$
../data/sim100/64.pdb


 23 24  0  0  0  0  0  0  0  0999 V2000
   70.0030   49.9972   55.5149 O   0  0  0  0  0  0  0  0  0  0  0  0
   68.3812   46.8944   51.3896 O   0  0  0  0  0  0  0  0  0  0  0  0
   69.1741   47.3069   52.4824 C   0  0  0  0  0  0  0  0  0  0  0  0
   68.3097   47.2881   53.6907 C   0  0  0  0  0  0  0  0  0  0  0  0
   68.0857   45.9324   54.0250 O   0  0  0  0  0  0  0  0  0  0  0  0
   68.8930   47.9428   54.8970 C   0  0  0  0  0  0  0  0  0  0  0  0
   69.5143   47.0602   55.7663 O   0  0  0  0  0  0  0  0  0  0  0  0
   69.8844   49.0418   54.5390 C   0  0  0  0  0  0  0  0  0  0  0  0
   69.3895   49.6250   53.2190 C   0  0  0  0  0  0  0  0  0  0  0  0
   69.8129   50.9083   53.0072 O   0  0  0  0  0  0  0  0  0  0  0  0
   69.7421   48.6531   52.1425 C   0  0  0  0  0  0  0  0  0  0  0  0
   71.1287   48.5054   52.0374 O   0  0  0  0  0  0  0  0  0  0  0  0
   71.2739   49.9897   56.1280 C   0  0  0  0  0  0  0  0  0  0  0  0
   72.0900   51.1084   55.5975 C   0  0  0  0  0  0  0  0  0  0  0  0
   72.7379   50.6359   54.4302 O   0  0  0  0  0  0  0  0  0  0  0  0
   73.1147   51.6802   56.4822 C   0  0  0  0  0  0  0  0  0  0  0  0
   74.4212   51.3457   56.0553 O   0  0  0  0  0  0  0  0  0  0  0  0
   73.0230   51.3579   57.9262 C   0  0  0  0  0  0  0  0  0  0  0  0
   74.2993   51.4150   58.5204 O   0  0  0  0  0  0  0  0  0  0  0  0
   72.4643   49.9988   58.2330 C   0  0  0  0  0  0  0  0  0  0  0  0
   73.1801   48.9943   57.5978 O   0  0  0  0  0  0  0  0  0  0  0  0
   71.0659   49.9913   57.6024 C   0  0  0  0  0  0  0  0  0  0  0  0
   70.4005   51.1563   57.9766 O   0  0  0  0  0  0  0  0  0  0  0  0
  3  2  1  0  0  0
  3  4  1  0  0  0
  3 11  1  0  0  0
  4  5  1  0  0  0
  4  6  1  0  0  0
  6  7  1  0  0  0
  6  8  1  0  0  0
  8  1  1  0  0  0
  8  9  1  0  0  0
 13  1  1  0  0  0
 13 14  1  0  0  0
 13 22  1  0  0  0
 14 15  1  0  0  0
 14 16  1  0  0  0
 16 17  1  0  0  0
 16 18  1  0  0  0
 18 19  1  0  0  0
 18 20  1  0  0  0
 20 21  1  0  0  0
 20 22  1  0  0  0
 22 23  1  0  0  0
  9 10  1  0  0  0
  9 11  1  0  0  0
 11 12  1  0  0  0
M  END
> <minimizedAffinity>
-7.92296

$$$$
../data/sim100/65.pdb


  5  4  0  0  0  0  0  0  0  0999 V2000
   68.5675   47.1798   53.4371 C   0  0  0  0  0  0  0  0  0  0  0  0
   69.7238   47.7554   52.6400 C   0  0  0  0  0  0  0  0  0  0  0  0
   69.7338   47.1621   51.3169 N   0  0  0  0  0  0  0  0  0  0  0  0
   69.6319   49.2699   52.5419 C   0  0  0  0  0  0  0  0  0  0  0  0
   69.7572   49.7298   51.2604 O   0  0  0  0  0  0  0  0  0  0  0  0
  2  1  1  0  0  0
  2  3  1  0  0  0
  2  4  1  0  0  0
  4  5  1  0  0  0
M  CHG 1   3   1
M  END
> <minimizedAffinity>
-3.28855

$$$$
../data/sim100/66.pdb


  5  4  0  0  0  0  0  0  0  0999 V2000
   70.0515   48.8145   52.8919 C   0  0  0  0  0  0  0  0  0  0  0  0
   69.2297   47.7004   52.3346 C   0  0  0  0  0  0  0  0  0  0  0  0
   69.8557   47.0364   51.2896 O   0  0  0  0  0  0  0  0  0  0  0  0
   68.7432   46.7231   53.3626 C   0  0  0  0  0  0  0  0  0  0  0  0
   67.6447   45.5148   52.7487 Cl  0  0  0  0  0  0  0  0  0  0  0  0
  2  1  1  0  0  0
  2  3  1  0  0  0
  2  4  1  0  0  0
  4  5  1  0  0  0
M  END
> <minimizedAffinity>
-3.03450

$$$$
../data/sim100/67.pdb


  5  4  0  0  0  0  0  0  0  0999 V2000
   68.1944   46.5361   53.5174 C   0  0  0  0  0  0  0  0  0  0  0  0
   69.0870   46.8465   52.3262 C   0  0  0  0  0  0  0  0  0  0  0  0
   68.3739   46.9163   51.1384 O   0  0  0  0  0  0  0  0  0  0  0  0
   69.8158   48.1254   52.6517 C   0  0  0  0  0  0  0  0  0  0  0  0
   70.1643   48.8761   51.4522 N   0  0  0  0  0  0  0  0  0  0  0  0
  2  1  1  0  0  0
  2  3  1  0  0  0
  2  4  1  0  0  0
  4  5  1  0  0  0
M  CHG 1   5   1
M  END
> <minimizedAffinity>
-3.23160

$$$$
../data/sim100/68.pdb


 12 11  0  0  0  0  0  0  0  0999 V2000
   70.1746   49.3431   53.6917 C   0  0  0  0  0  0  0  0  0  0  0  0
   71.4888   49.3189   53.2046 O   0  0  0  0  0  0  0  0  0  0  0  0
   69.9928   50.6355   54.4127 C   0  0  0  0  0  0  0  0  0  0  0  0
   70.8362   51.6221   53.8312 O   0  0  0  0  0  0  0  0  0  0  0  0
   68.0525   51.6285   55.4569 O   0  0  0  0  0  0  0  0  0  0  0  0
   68.5943   51.2094   54.2728 C   0  0  0  0  0  0  0  0  0  0  0  0
   69.2423   49.0835   52.5605 C   0  0  0  0  0  0  0  0  0  0  0  0
   69.8574   49.5467   51.3637 O   0  0  0  0  0  0  0  0  0  0  0  0
   68.9620   47.6227   52.3032 C   0  0  0  0  0  0  0  0  0  0  0  0
   69.8514   47.0157   51.4598 O   0  0  0  0  0  0  0  0  0  0  0  0
   68.9336   46.9356   53.6717 C   0  0  0  0  0  0  0  0  0  0  0  0
   68.1202   45.8244   53.6470 O   0  0  0  0  0  0  0  0  0  0  0  0
  5  6  1  0  0  0
  6  3  1  0  0  0
  3  4  1  0  0  0
  3  1  1  0  0  0
  1  2  1  0  0  0
  1  7  1  0  0  0
  7  8  1  0  0  0
  7  9  1  0  0  0
  9 10  1  0  0  0
  9 11  1  0  0  0
 11 12  1  0  0  0
M  END
> <minimizedAffinity>
-4.73690

$$$$
../data/sim100/69.pdb


  5  4  0  0  0  0  0  0  0  0999 V2000
   67.6153   45.5328   52.5688 C   0  0  0  0  0  0  0  0  0  0  0  0
   68.4874   46.4378   52.9778 C   0  0  0  0  0  0  0  0  0  0  0  0
   68.5582   46.8754   54.3991 C   0  0  0  0  0  0  0  0  0  0  0  0
   69.4280   47.0354   51.9672 C   0  0  0  0  0  0  0  0  0  0  0  0
   70.2022   48.4246   52.7645 Cl  0  0  0  0  0  0  0  0  0  0  0  0
  1  2  2  0  0  0
  2  3  1  0  0  0
  2  4  1  0  0  0
  4  5  1  0  0  0
M  END
> <minimizedAffinity>
-3.00830

$$$$
../data/sim100/70.pdb


 10 10  0  0  0  0  0  0  0  0999 V2000
   66.9174   44.9731   51.4623 O   0  0  0  0  0  0  0  0  0  0  0  0
   67.1529   45.5199   52.7013 N   0  0  0  0  0  0  0  0  0  0  0  0
   68.0769   46.4386   52.8547 C   0  0  0  0  0  0  0  0  0  0  0  0
   68.3022   47.0003   54.1807 C   0  0  0  0  0  0  0  0  0  0  0  0
   69.2481   47.9333   54.3086 C   0  0  0  0  0  0  0  0  0  0  0  0
   70.0381   48.3839   53.1677 C   0  0  0  0  0  0  0  0  0  0  0  0
   70.9631   49.2829   53.2466 N   0  0  0  0  0  0  0  0  0  0  0  0
   71.1880   49.8236   54.4949 O   0  0  0  0  0  0  0  0  0  0  0  0
   69.8085   47.8182   51.8414 C   0  0  0  0  0  0  0  0  0  0  0  0
   68.8663   46.8898   51.7132 C   0  0  0  0  0  0  0  0  0  0  0  0
  1  2  1  0  0  0
  2  3  2  0  0  0
  3  4  1  0  0  0
  3 10  1  0  0  0
  4  5  2  0  0  0
  5  6  1  0  0  0
  6  7  2  0  0  0
  6  9  1  0  0  0
  7  8  1  0  0  0
  9 10  2  0  0  0
M  END
> <minimizedAffinity>
-5.96179

$$$$
../data/sim100/71.pdb


 14 14  0  0  0  0  0  0  0  0999 V2000
   74.0046   51.3353   55.3887 C   0  0  0  0  0  0  0  0  0  0  0  0
   74.0773   52.6927   54.7350 C   0  0  0  0  0  0  0  0  0  0  0  0
   73.5023   52.7486   53.4958 O   0  0  0  0  0  0  0  0  0  0  0  0
   73.3099   53.6422   55.6648 C   0  0  0  0  0  0  0  0  0  0  0  0
   73.5234   54.9278   55.2431 O   0  0  0  0  0  0  0  0  0  0  0  0
   71.8647   53.2048   55.5845 C   0  0  0  0  0  0  0  0  0  0  0  0
   70.9826   54.1461   56.0370 O   0  0  0  0  0  0  0  0  0  0  0  0
   71.7524   51.8821   56.2765 C   0  0  0  0  0  0  0  0  0  0  0  0
   72.2527   51.9107   57.5801 O   0  0  0  0  0  0  0  0  0  0  0  0
   72.5778   50.8465   55.5318 C   0  0  0  0  0  0  0  0  0  0  0  0
   75.8873   50.0351   55.5433 C   0  0  0  0  0  0  0  0  0  0  0  0
   74.7828   50.3889   54.7711 O   0  0  0  0  0  0  0  0  0  0  0  0
   72.0183   50.4857   54.3336 O   0  0  0  0  0  0  0  0  0  0  0  0
   70.7664   49.9215   54.5411 C   0  0  0  0  0  0  0  0  0  0  0  0
 11 12  1  0  0  0
  1 12  1  0  0  0
  1  2  1  0  0  0
  1 10  1  0  0  0
  2  3  1  0  0  0
  2  4  1  0  0  0
  4  5  1  0  0  0
  4  6  1  0  0  0
  6  7  1  0  0  0
  6  8  1  0  0  0
  8  9  1  0  0  0
  8 10  1  0  0  0
 10 13  1  0  0  0
 13 14  1  0  0  0
M  END
> <minimizedAffinity>
-5.40893

$$$$
../data/sim100/72.pdb


 13 13  0  0  0  0  0  0  0  0999 V2000
   72.9844   53.3368   56.6583 C   0  0  0  0  0  0  0  0  0  0  0  0
   72.5650   51.8805   56.8306 C   0  0  0  0  0  0  0  0  0  0  0  0
   72.5270   51.5826   58.2029 O   0  0  0  0  0  0  0  0  0  0  0  0
   73.5503   50.9680   56.1173 C   0  0  0  0  0  0  0  0  0  0  0  0
   73.2683   49.6577   56.3868 O   0  0  0  0  0  0  0  0  0  0  0  0
   73.4284   51.3072   54.6303 C   0  0  0  0  0  0  0  0  0  0  0  0
   74.0061   50.3735   53.8205 O   0  0  0  0  0  0  0  0  0  0  0  0
   74.0626   52.6921   54.4981 C   0  0  0  0  0  0  0  0  0  0  0  0
   75.2983   52.7161   55.1586 O   0  0  0  0  0  0  0  0  0  0  0  0
   73.0805   53.6373   55.1939 C   0  0  0  0  0  0  0  0  0  0  0  0
   73.4051   54.9451   54.9341 O   0  0  0  0  0  0  0  0  0  0  0  0
   70.7490   53.9016   56.4616 C   0  0  0  0  0  0  0  0  0  0  0  0
   71.9342   54.1050   57.1744 O   0  0  0  0  0  0  0  0  0  0  0  0
 12 13  1  0  0  0
  1 13  1  0  0  0
  1  2  1  0  0  0
  1 10  1  0  0  0
  2  3  1  0  0  0
  2  4  1  0  0  0
  4  5  1  0  0  0
  4  6  1  0  0  0
  6  7  1  0  0  0
  6  8  1  0  0  0
  8  9  1  0  0  0
  8 10  1  0  0  0
 10 11  1  0  0  0
M  END
> <minimizedAffinity>
-5.47514

$$$$
../data/sim100/73.pdb


 12 12  0  0  0  0  0  0  0  0999 V2000
   68.1180   47.5565   55.9383 C   0  0  0  0  0  0  0  0  0  0  0  0
   68.8992   47.9895   54.9696 C   0  0  0  0  0  0  0  0  0  0  0  0
   69.2541   47.1696   53.7777 C   0  0  0  0  0  0  0  0  0  0  0  0
   68.5310   45.9836   53.8333 O   0  0  0  0  0  0  0  0  0  0  0  0
   69.0589   47.9139   52.4955 C   0  0  0  0  0  0  0  0  0  0  0  0
   69.6561   47.1872   51.4645 O   0  0  0  0  0  0  0  0  0  0  0  0
   69.7558   49.2544   52.6138 C   0  0  0  0  0  0  0  0  0  0  0  0
   71.0921   49.0292   52.8736 O   0  0  0  0  0  0  0  0  0  0  0  0
   69.0694   50.0218   53.7098 C   0  0  0  0  0  0  0  0  0  0  0  0
   69.3008   51.3634   53.6966 O   0  0  0  0  0  0  0  0  0  0  0  0
   69.4783   49.3628   55.0323 C   0  0  0  0  0  0  0  0  0  0  0  0
   70.8684   49.2183   55.0237 O   0  0  0  0  0  0  0  0  0  0  0  0
  1  2  2  0  0  0
  2  3  1  0  0  0
  2 11  1  0  0  0
  3  4  1  0  0  0
  3  5  1  0  0  0
  5  6  1  0  0  0
  5  7  1  0  0  0
  7  8  1  0  0  0
  7  9  1  0  0  0
  9 10  1  0  0  0
  9 11  1  0  0  0
 11 12  1  0  0  0
M  END
> <minimizedAffinity>
-5.65357

$$$$
../data/sim100/74.pdb


 16 16  0  0  0  0  0  0  0  0999 V2000
   69.3950   50.2931   54.9522 C   0  0  0  0  0  0  0  0  0  0  0  0
   68.8906   49.1749   55.5438 C   0  0  0  0  0  0  0  0  0  0  0  0
   68.6832   48.0407   54.7633 C   0  0  0  0  0  0  0  0  0  0  0  0
   68.9717   48.0182   53.4255 C   0  0  0  0  0  0  0  0  0  0  0  0
   69.4818   49.1578   52.8389 C   0  0  0  0  0  0  0  0  0  0  0  0
   69.7831   49.1573   51.4701 O   0  0  0  0  0  0  0  0  0  0  0  0
   69.6910   50.2820   53.5935 C   0  0  0  0  0  0  0  0  0  0  0  0
   70.2013   51.4431   53.0390 O   0  0  0  0  0  0  0  0  0  0  0  0
   71.1249   51.8195   55.8058 C   0  0  0  0  0  0  0  0  0  0  0  0
   69.6455   51.5548   55.7240 C   0  0  0  0  0  0  0  0  0  0  0  0
   69.1388   51.4080   57.1549 C   0  0  0  0  0  0  0  0  0  0  0  0
   68.9451   52.7260   55.0852 C   0  0  0  0  0  0  0  0  0  0  0  0
   68.7582   46.8250   52.5983 C   0  0  0  0  0  0  0  0  0  0  0  0
   70.0394   46.4288   51.9109 C   0  0  0  0  0  0  0  0  0  0  0  0
   67.6236   47.0039   51.6032 C   0  0  0  0  0  0  0  0  0  0  0  0
   68.3422   45.6277   53.4591 C   0  0  0  0  0  0  0  0  0  0  0  0
  9 10  1  0  0  0
 10 11  1  0  0  0
 10 12  1  0  0  0
 10  1  1  0  0  0
  1  2  2  0  0  0
  1  7  1  0  0  0
  2  3  1  0  0  0
  3  4  2  0  0  0
  4 13  1  0  0  0
  4  5  1  0  0  0
 13 14  1  0  0  0
 13 15  1  0  0  0
 13 16  1  0  0  0
  5  6  1  0  0  0
  5  7  2  0  0  0
  7  8  1  0  0  0
M  END
> <minimizedAffinity>
-5.41541

$$$$
../data/sim100/75.pdb


 22 23  0  0  0  0  0  0  0  0999 V2000
   68.8701   47.3689   54.0126 C   0  0  0  0  0  0  0  0  0  0  0  0
   69.4976   48.2659   53.1530 C   0  0  0  0  0  0  0  0  0  0  0  0
   70.2057   49.3598   53.5832 C   0  0  0  0  0  0  0  0  0  0  0  0
   70.3019   49.5829   54.9342 C   0  0  0  0  0  0  0  0  0  0  0  0
   69.6919   48.7114   55.8036 C   0  0  0  0  0  0  0  0  0  0  0  0
   68.9811   47.6122   55.3375 C   0  0  0  0  0  0  0  0  0  0  0  0
   71.0404   50.7289   55.4802 C   0  0  0  0  0  0  0  0  0  0  0  0
   70.3972   51.7980   56.0542 C   0  0  0  0  0  0  0  0  0  0  0  0
   71.0975   52.8830   56.5707 C   0  0  0  0  0  0  0  0  0  0  0  0
   72.4751   52.9212   56.5232 C   0  0  0  0  0  0  0  0  0  0  0  0
   73.1218   51.8514   55.9481 C   0  0  0  0  0  0  0  0  0  0  0  0
   72.4129   50.7749   55.4365 C   0  0  0  0  0  0  0  0  0  0  0  0
   73.2313   54.0440   57.0567 C   0  0  0  0  0  0  0  0  0  0  0  0
   73.2083   54.3670   58.2680 O   0  0  0  0  0  0  0  0  0  0  0  0
   74.0641   54.8437   56.1281 C   0  0  0  0  0  0  0  0  0  0  0  0
   73.3044   55.3375   55.0709 O   0  0  0  0  0  0  0  0  0  0  0  0
   74.5410   55.9472   56.8274 O   0  0  0  0  0  0  0  0  0  0  0  0
   68.0468   45.1629   54.1452 O   0  0  0  0  0  0  0  0  0  0  0  0
   68.1607   46.2639   53.4472 C   0  0  0  0  0  0  0  0  0  0  0  0
   67.5166   46.2040   52.1295 C   0  0  0  0  0  0  0  0  0  0  0  0
   68.2501   46.5719   51.0434 O   0  0  0  0  0  0  0  0  0  0  0  0
   67.0356   44.8937   51.9142 O   0  0  0  0  0  0  0  0  0  0  0  0
 18 19  2  0  0  0
 19  1  1  0  0  0
 19 20  1  0  0  0
  1  2  2  0  0  0
  1  6  1  0  0  0
  2  3  1  0  0  0
  3  4  2  0  0  0
  4  7  1  0  0  0
  4  5  1  0  0  0
  7  8  2  0  0  0
  7 12  1  0  0  0
  8  9  1  0  0  0
  9 10  2  0  0  0
 10 13  1  0  0  0
 10 11  1  0  0  0
 13 14  2  0  0  0
 13 15  1  0  0  0
 15 16  1  0  0  0
 15 17  1  0  0  0
 11 12  2  0  0  0
  5  6  2  0  0  0
 20 21  1  0  0  0
 20 22  1  0  0  0
M  END
> <minimizedAffinity>
-7.63574

$$$$
../data/sim100/76.pdb


 19 20  0  0  0  0  0  0  0  0999 V2000
   70.7134   50.6294   53.7302 O   0  0  0  0  0  0  0  0  0  0  0  0
   67.9392   46.0013   53.2061 O   0  0  0  0  0  0  0  0  0  0  0  0
   68.9415   46.9307   53.4624 C   0  0  0  0  0  0  0  0  0  0  0  0
   68.5398   47.8896   54.5188 C   0  0  0  0  0  0  0  0  0  0  0  0
   69.2433   49.0041   54.6524 C   0  0  0  0  0  0  0  0  0  0  0  0
   70.4190   49.2837   53.7510 C   0  0  0  0  0  0  0  0  0  0  0  0
   70.1897   48.8108   52.3532 C   0  0  0  0  0  0  0  0  0  0  0  0
   69.7253   49.8824   51.5679 O   0  0  0  0  0  0  0  0  0  0  0  0
   69.2182   47.6954   52.2128 C   0  0  0  0  0  0  0  0  0  0  0  0
   69.6707   46.7779   51.2432 O   0  0  0  0  0  0  0  0  0  0  0  0
   71.0740   51.1272   54.9788 C   0  0  0  0  0  0  0  0  0  0  0  0
   70.4044   52.4511   55.1584 C   0  0  0  0  0  0  0  0  0  0  0  0
   69.0469   52.3445   55.4374 O   0  0  0  0  0  0  0  0  0  0  0  0
   71.0102   53.2736   56.2428 C   0  0  0  0  0  0  0  0  0  0  0  0
   72.3415   53.4332   56.1731 C   0  0  0  0  0  0  0  0  0  0  0  0
   72.9953   52.7450   55.0008 C   0  0  0  0  0  0  0  0  0  0  0  0
   74.3695   52.7820   55.1566 O   0  0  0  0  0  0  0  0  0  0  0  0
   72.5747   51.2743   55.1222 C   0  0  0  0  0  0  0  0  0  0  0  0
   73.2650   50.5540   54.1554 O   0  0  0  0  0  0  0  0  0  0  0  0
  3  2  1  0  0  0
  3  4  1  0  0  0
  3  9  1  0  0  0
  4  5  2  0  0  0
  5  6  1  0  0  0
  6  1  1  0  0  0
  6  7  1  0  0  0
 11  1  1  0  0  0
 11 12  1  0  0  0
 11 18  1  0  0  0
 12 13  1  0  0  0
 12 14  1  0  0  0
 14 15  2  0  0  0
 15 16  1  0  0  0
 16 17  1  0  0  0
 16 18  1  0  0  0
 18 19  1  0  0  0
  7  8  1  0  0  0
  7  9  1  0  0  0
  9 10  1  0  0  0
M  END
> <minimizedAffinity>
-7.89355

$$$$
../data/sim100/77.pdb


 12 12  0  0  0  0  0  0  0  0999 V2000
   69.9777   46.3140   57.3741 Br  0  0  0  0  0  0  0  0  0  0  0  0
   70.2168   48.1410   56.8551 C   0  0  0  0  0  0  0  0  0  0  0  0
   70.9106   49.0113   57.6675 C   0  0  0  0  0  0  0  0  0  0  0  0
   71.6550   48.4343   59.3311 Br  0  0  0  0  0  0  0  0  0  0  0  0
   71.0939   50.3325   57.3118 C   0  0  0  0  0  0  0  0  0  0  0  0
   72.0543   51.5521   58.4285 Br  0  0  0  0  0  0  0  0  0  0  0  0
   70.5502   50.7357   56.1091 C   0  0  0  0  0  0  0  0  0  0  0  0
   70.7875   52.5611   55.5870 Br  0  0  0  0  0  0  0  0  0  0  0  0
   69.8566   49.8627   55.2980 C   0  0  0  0  0  0  0  0  0  0  0  0
   69.1188   50.4437   53.6463 Br  0  0  0  0  0  0  0  0  0  0  0  0
   69.6753   48.5471   55.6535 C   0  0  0  0  0  0  0  0  0  0  0  0
   68.7116   47.3172   54.5364 Br  0  0  0  0  0  0  0  0  0  0  0  0
  1  2  1  0  0  0
  2  3  2  0  0  0
  2 11  1  0  0  0
  3  4  1  0  0  0
  3  5  1  0  0  0
  5  6  1  0  0  0
  5  7  2  0  0  0
  7  8  1  0  0  0
  7  9  1  0  0  0
  9 10  1  0  0  0
  9 11  2  0  0  0
 11 12  1  0  0  0
M  END
> <minimizedAffinity>
-4.23384

$$$$
../data/sim100/78.pdb


 12 12  0  0  0  0  0  0  0  0999 V2000
   69.1194   50.8072   53.5852 Cl  0  0  0  0  0  0  0  0  0  0  0  0
   68.9770   50.2094   55.2317 C   0  0  0  0  0  0  0  0  0  0  0  0
   69.4088   51.2368   56.2579 C   0  0  0  0  0  0  0  0  0  0  0  0
   69.0613   52.8878   55.7678 Cl  0  0  0  0  0  0  0  0  0  0  0  0
   68.6772   50.8486   57.5469 C   0  0  0  0  0  0  0  0  0  0  0  0
   66.9369   51.2169   57.3268 Cl  0  0  0  0  0  0  0  0  0  0  0  0
   68.9140   49.3852   57.7563 C   0  0  0  0  0  0  0  0  0  0  0  0
   67.4834   48.3968   57.3732 Cl  0  0  0  0  0  0  0  0  0  0  0  0
   70.0800   48.8506   56.9547 C   0  0  0  0  0  0  0  0  0  0  0  0
   70.2712   47.1339   57.4584 Cl  0  0  0  0  0  0  0  0  0  0  0  0
   69.7942   48.9618   55.4844 C   0  0  0  0  0  0  0  0  0  0  0  0
   68.8411   47.5831   54.8816 Cl  0  0  0  0  0  0  0  0  0  0  0  0
  2  1  1  0  0  0
  2  3  1  0  0  0
  2 11  1  0  0  0
  3  4  1  0  0  0
  3  5  1  0  0  0
  5  6  1  0  0  0
  5  7  1  0  0  0
  7  8  1  0  0  0
  7  9  1  0  0  0
  9 10  1  0  0  0
  9 11  1  0  0  0
 11 12  1  0  0  0
M  END
> <minimizedAffinity>
-5.06257

$$$$
../data/sim100/79.pdb


  6  5  0  0  0  0  0  0  0  0999 V2000
   68.0702   45.5429   54.3510 Cl  0  0  0  0  0  0  0  0  0  0  0  0
   68.4977   46.7993   53.2037 C   0  0  0  0  0  0  0  0  0  0  0  0
   68.0757   46.5164   51.5248 Cl  0  0  0  0  0  0  0  0  0  0  0  0
   69.1153   47.9169   53.5888 C   0  0  0  0  0  0  0  0  0  0  0  0
   69.5461   48.2189   55.2584 Cl  0  0  0  0  0  0  0  0  0  0  0  0
   69.5557   49.1884   52.4701 Cl  0  0  0  0  0  0  0  0  0  0  0  0
  1  2  1  0  0  0
  2  3  1  0  0  0
  2  4  2  0  0  0
  4  5  1  0  0  0
  4  6  1  0  0  0
M  END
> <minimizedAffinity>
-3.13476

$$$$
../data/sim100/80.pdb


  6  5  0  0  0  0  0  0  0  0999 V2000
   68.7253   49.3362   57.8853 F   0  0  0  0  0  0  0  0  0  0  0  0
   67.4066   49.6655   57.7496 C   0  0  0  0  0  0  0  0  0  0  0  0
   66.4995   48.6584   57.8222 F   0  0  0  0  0  0  0  0  0  0  0  0
   67.0437   50.9273   57.5542 C   0  0  0  0  0  0  0  0  0  0  0  0
   65.7209   51.1939   57.4269 F   0  0  0  0  0  0  0  0  0  0  0  0
   67.9831   51.9018   57.4886 F   0  0  0  0  0  0  0  0  0  0  0  0
  1  2  1  0  0  0
  2  3  1  0  0  0
  2  4  2  0  0  0
  4  5  1  0  0  0
  4  6  1  0  0  0
M  END
> <minimizedAffinity>
-3.28631

$$$$
../data/sim100/81.pdb


 12 12  0  0  0  0  0  0  0  0999 V2000
   69.5837   49.9060   51.6241 Cl  0  0  0  0  0  0  0  0  0  0  0  0
   69.2909   49.3497   53.2659 C   0  0  0  0  0  0  0  0  0  0  0  0
   69.0865   47.9974   53.4669 C   0  0  0  0  0  0  0  0  0  0  0  0
   69.1206   46.8691   52.1069 Cl  0  0  0  0  0  0  0  0  0  0  0  0
   68.8583   47.5620   54.7529 C   0  0  0  0  0  0  0  0  0  0  0  0
   68.5949   45.8345   55.0190 Cl  0  0  0  0  0  0  0  0  0  0  0  0
   68.8341   48.4522   55.8064 C   0  0  0  0  0  0  0  0  0  0  0  0
   68.5436   47.8815   57.4148 Cl  0  0  0  0  0  0  0  0  0  0  0  0
   69.0364   49.8059   55.6210 C   0  0  0  0  0  0  0  0  0  0  0  0
   69.0042   50.9307   56.9658 Cl  0  0  0  0  0  0  0  0  0  0  0  0
   69.2659   50.2322   54.3257 C   0  0  0  0  0  0  0  0  0  0  0  0
   69.5246   51.9248   54.0505 Cl  0  0  0  0  0  0  0  0  0  0  0  0
  1  2  1  0  0  0
  2  3  2  0  0  0
  2 11  1  0  0  0
  3  4  1  0  0  0
  3  5  1  0  0  0
  5  6  1  0  0  0
  5  7  2  0  0  0
  7  8  1  0  0  0
  7  9  1  0  0  0
  9 10  1  0  0  0
  9 11  2  0  0  0
 11 12  1  0  0  0
M  END
> <minimizedAffinity>
-4.96223

$$$$
../data/sim100/82.pdb


 12 12  0  0  0  0  0  0  0  0999 V2000
   69.8588   51.2408   53.7540 C   0  0  0  0  0  0  0  0  0  0  0  0
   69.4667   49.8472   54.0197 C   0  0  0  0  0  0  0  0  0  0  0  0
   69.4326   48.9011   52.9850 C   0  0  0  0  0  0  0  0  0  0  0  0
   69.7933   49.3343   51.6571 C   0  0  0  0  0  0  0  0  0  0  0  0
   69.0669   47.6034   53.2344 C   0  0  0  0  0  0  0  0  0  0  0  0
   69.0382   46.6420   52.1540 C   0  0  0  0  0  0  0  0  0  0  0  0
   68.7311   47.2329   54.5183 C   0  0  0  0  0  0  0  0  0  0  0  0
   68.3366   45.8432   54.7955 C   0  0  0  0  0  0  0  0  0  0  0  0
   68.7599   48.1696   55.5637 C   0  0  0  0  0  0  0  0  0  0  0  0
   68.4044   47.8017   56.9521 C   0  0  0  0  0  0  0  0  0  0  0  0
   69.1327   49.4816   55.2975 C   0  0  0  0  0  0  0  0  0  0  0  0
   69.1731   50.4805   56.3651 C   0  0  0  0  0  0  0  0  0  0  0  0
  1  2  1  0  0  0
  2  3  2  0  0  0
  2 11  1  0  0  0
  3  4  1  0  0  0
  3  5  1  0  0  0
  5  6  1  0  0  0
  5  7  2  0  0  0
  7  8  1  0  0  0
  7  9  1  0  0  0
  9 10  1  0  0  0
  9 11  2  0  0  0
 11 12  1  0  0  0
M  END
> <minimizedAffinity>
-5.87742

$$$$
../data/sim100/83.pdb


  4  3  0  0  0  0  0  0  0  0999 V2000
   68.0499   46.5746   54.1302 C   0  0  0  0  0  0  0  0  0  0  0  0
   67.7216   45.7262   52.9023 C   0  0  0  0  0  0  0  0  0  0  0  0
   68.2232   46.5283   51.7018 C   0  0  0  0  0  0  0  0  0  0  0  0
   69.3902   47.3582   52.1871 C   0  0  0  0  0  0  0  0  0  0  0  0
  1  2  1  0  0  0
  2  3  1  0  0  0
  3  4  1  0  0  0
M  END
> <minimizedAffinity>
-2.67861

$$$$
../data/sim100/84.pdb


 12 12  0  0  0  0  0  0  0  0999 V2000
   72.1116   51.7913   58.2214 Br  0  0  0  0  0  0  0  0  0  0  0  0
   70.5695   50.7090   57.6940 C   0  0  0  0  0  0  0  0  0  0  0  0
   69.5341   51.6857   57.1830 C   0  0  0  0  0  0  0  0  0  0  0  0
   70.3480   52.8904   55.9197 Br  0  0  0  0  0  0  0  0  0  0  0  0
   68.3939   50.9541   56.5376 C   0  0  0  0  0  0  0  0  0  0  0  0
   67.2674   50.0745   57.8329 Br  0  0  0  0  0  0  0  0  0  0  0  0
   68.8629   50.0499   55.4528 C   0  0  0  0  0  0  0  0  0  0  0  0
   69.4199   51.1857   53.9660 Br  0  0  0  0  0  0  0  0  0  0  0  0
   69.9931   49.1526   55.8064 C   0  0  0  0  0  0  0  0  0  0  0  0
   69.3759   47.4681   56.5731 Br  0  0  0  0  0  0  0  0  0  0  0  0
   71.0649   49.7814   56.6332 C   0  0  0  0  0  0  0  0  0  0  0  0
   72.1789   50.8425   55.4267 Br  0  0  0  0  0  0  0  0  0  0  0  0
  2  1  1  0  0  0
  2  3  1  0  0  0
  2 11  1  0  0  0
  3  4  1  0  0  0
  3  5  1  0  0  0
  5  6  1  0  0  0
  5  7  1  0  0  0
  7  8  1  0  0  0
  7  9  1  0  0  0
  9 10  1  0  0  0
  9 11  1  0  0  0
 11 12  1  0  0  0
M  END
> <minimizedAffinity>
-4.67040

$$$$
../data/sim100/85.pdb


  6  5  0  0  0  0  0  0  0  0999 V2000
   69.4653   46.9914   51.8585 Cl  0  0  0  0  0  0  0  0  0  0  0  0
   69.2423   47.4838   53.5414 C   0  0  0  0  0  0  0  0  0  0  0  0
   68.9645   49.2074   53.6037 Cl  0  0  0  0  0  0  0  0  0  0  0  0
   68.1232   46.6601   54.1265 C   0  0  0  0  0  0  0  0  0  0  0  0
   67.6155   45.4925   52.8821 Cl  0  0  0  0  0  0  0  0  0  0  0  0
   68.7308   45.8355   55.5837 Cl  0  0  0  0  0  0  0  0  0  0  0  0
  1  2  1  0  0  0
  2  3  1  0  0  0
  2  4  1  0  0  0
  4  5  1  0  0  0
  4  6  1  0  0  0
M  END
> <minimizedAffinity>
-3.16925

$$$$
../data/sim100/86.pdb


  4  3  0  0  0  0  0  0  0  0999 V2000
   68.1049   45.9337   54.1000 C   0  0  0  0  0  0  0  0  0  0  0  0
   67.7426   45.8640   52.8372 C   0  0  0  0  0  0  0  0  0  0  0  0
   68.4258   46.6739   51.8271 C   0  0  0  0  0  0  0  0  0  0  0  0
   69.4960   47.3878   52.1465 C   0  0  0  0  0  0  0  0  0  0  0  0
  1  2  2  0  0  0
  2  3  1  0  0  0
  3  4  2  0  0  0
M  END
> <minimizedAffinity>
-2.69875

$$$$
../data/sim100/87.pdb


  6  5  0  0  0  0  0  0  0  0999 V2000
   67.9589   46.0745   52.3634 C   0  0  0  0  0  0  0  0  0  0  0  0
   68.2025   46.8423   53.6444 C   0  0  0  0  0  0  0  0  0  0  0  0
   68.3507   45.8789   54.7539 C   0  0  0  0  0  0  0  0  0  0  0  0
   69.3195   47.8068   53.4426 C   0  0  0  0  0  0  0  0  0  0  0  0
   69.8333   47.7115   52.0202 C   0  0  0  0  0  0  0  0  0  0  0  0
   69.0277   49.2216   53.7395 C   0  0  0  0  0  0  0  0  0  0  0  0
  1  2  1  0  0  0
  2  3  1  0  0  0
  2  4  1  0  0  0
  4  5  1  0  0  0
  4  6  1  0  0  0
M  END
> <minimizedAffinity>
-3.63556

$$$$
../data/sim100/88.pdb


  4  3  0  0  0  0  0  0  0  0999 V2000
   67.7377   45.5765   52.8279 C   0  0  0  0  0  0  0  0  0  0  0  0
   68.3911   46.3838   54.3288 S   0  0  0  0  0  0  0  0  0  0  0  0
   69.1789   48.3034   53.8510 S   0  0  0  0  0  0  0  0  0  0  0  0
   70.0080   48.3057   52.2531 C   0  0  0  0  0  0  0  0  0  0  0  0
  1  2  1  0  0  0
  2  3  1  0  0  0
  3  4  1  0  0  0
M  END
> <minimizedAffinity>
-1.89398

$$$$
../data/sim100/90.pdb


  6  5  0  0  0  0  0  0  0  0999 V2000
   69.3887   47.1609   52.0394 C   0  0  0  0  0  0  0  0  0  0  0  0
   69.8829   49.4442   51.3378 O   0  0  0  0  0  0  0  0  0  0  0  0
   70.0589   48.4498   52.2561 C   0  0  0  0  0  0  0  0  0  0  0  0
   68.4595   46.6582   53.0746 C   0  0  0  0  0  0  0  0  0  0  0  0
   67.6266   45.4971   52.5831 C   0  0  0  0  0  0  0  0  0  0  0  0
   67.1316   45.8476   51.3084 O   0  0  0  0  0  0  0  0  0  0  0  0
  2  3  1  0  0  0
  3  1  1  0  0  0
  1  4  1  0  0  0
  4  5  1  0  0  0
  5  6  1  0  0  0
M  END
> <minimizedAffinity>
-3.55629

$$$$
../data/sim100/91.pdb


  5  4  0  0  0  0  0  0  0  0999 V2000
   69.2193   47.8020   53.3630 C   0  0  0  0  0  0  0  0  0  0  0  0
   69.8112   47.0586   51.2128 O   0  0  0  0  0  0  0  0  0  0  0  0
   69.0392   46.7214   52.3082 C   0  0  0  0  0  0  0  0  0  0  0  0
   69.9176   48.9600   52.6610 C   0  0  0  0  0  0  0  0  0  0  0  0
   71.0953   49.2851   53.3364 O   0  0  0  0  0  0  0  0  0  0  0  0
  2  3  1  0  0  0
  3  1  1  0  0  0
  1  4  1  0  0  0
  4  5  1  0  0  0
M  END
> <minimizedAffinity>
-3.05020

$$$$
../data/sim100/92.pdb


  4  3  0  0  0  0  0  0  0  0999 V2000
   68.3346   46.5302   53.2899 C   0  0  0  0  0  0  0  0  0  0  0  0
   69.1364   46.9052   52.0516 C   0  0  0  0  0  0  0  0  0  0  0  0
   69.9292   48.1372   52.3992 C   0  0  0  0  0  0  0  0  0  0  0  0
   70.2805   48.9003   51.3231 O   0  0  0  0  0  0  0  0  0  0  0  0
  1  2  1  0  0  0
  2  3  1  0  0  0
  3  4  1  0  0  0
M  END
> <minimizedAffinity>
-2.75175

$$$$
../data/sim100/93.pdb


 12 12  0  0  0  0  0  0  0  0999 V2000
   68.5347   48.8710   55.9976 O   0  0  0  0  0  0  0  0  0  0  0  0
   69.1459   48.3391   54.8924 C   0  0  0  0  0  0  0  0  0  0  0  0
   68.6440   46.9430   54.5656 C   0  0  0  0  0  0  0  0  0  0  0  0
   69.0288   46.0173   55.5450 O   0  0  0  0  0  0  0  0  0  0  0  0
   68.9524   46.5078   53.1823 C   0  0  0  0  0  0  0  0  0  0  0  0
   67.4641   46.4037   52.1765 Cl  0  0  0  0  0  0  0  0  0  0  0  0
   69.9710   47.2878   52.4480 C   0  0  0  0  0  0  0  0  0  0  0  0
   69.7722   47.0716   51.0630 O   0  0  0  0  0  0  0  0  0  0  0  0
   69.9571   48.7552   52.6642 C   0  0  0  0  0  0  0  0  0  0  0  0
   69.8231   49.5187   51.5371 O   0  0  0  0  0  0  0  0  0  0  0  0
   68.8421   49.1563   53.6277 C   0  0  0  0  0  0  0  0  0  0  0  0
   68.8236   50.8775   53.9351 Cl  0  0  0  0  0  0  0  0  0  0  0  0
  2  1  1  0  0  0
  2  3  1  0  0  0
  2 11  1  0  0  0
  3  4  1  0  0  0
  3  5  1  0  0  0
  5  6  1  0  0  0
  5  7  1  0  0  0
  7  8  1  0  0  0
  7  9  1  0  0  0
  9 10  1  0  0  0
  9 11  1  0  0  0
 11 12  1  0  0  0
M  END
> <minimizedAffinity>
-5.49829

$$$$
../data/sim100/94.pdb


  5  5  0  0  0  0  0  0  0  0999 V2000
   70.1857   48.9190   51.3845 O   0  0  0  0  0  0  0  0  0  0  0  0
   69.9634   47.9677   52.3366 C   0  0  0  0  0  0  0  0  0  0  0  0
   68.9973   48.3554   53.4529 C   0  0  0  0  0  0  0  0  0  0  0  0
   68.6245   46.8653   53.4695 C   0  0  0  0  0  0  0  0  0  0  0  0
   68.9076   46.9147   51.9659 C   0  0  0  0  0  0  0  0  0  0  0  0
  1  2  1  0  0  0
  2  3  1  0  0  0
  2  5  1  0  0  0
  3  4  1  0  0  0
  4  5  1  0  0  0
M  END
> <minimizedAffinity>
-3.47946

$$$$
../data/sim100/95.pdb


  7  7  0  0  0  0  0  0  0  0999 V2000
   69.9578   46.9282   51.4266 O   0  0  0  0  0  0  0  0  0  0  0  0
   68.9887   47.6005   52.1327 C   0  0  0  0  0  0  0  0  0  0  0  0
   68.1702   46.6219   52.9692 C   0  0  0  0  0  0  0  0  0  0  0  0
   68.8425   46.6633   54.3326 C   0  0  0  0  0  0  0  0  0  0  0  0
   69.1749   48.1444   54.4811 C   0  0  0  0  0  0  0  0  0  0  0  0
   69.5162   48.6197   53.0939 C   0  0  0  0  0  0  0  0  0  0  0  0
   70.8678   48.8920   52.9285 O   0  0  0  0  0  0  0  0  0  0  0  0
  2  1  1  0  0  0
  2  3  1  0  0  0
  2  6  1  0  0  0
  3  4  1  0  0  0
  4  5  1  0  0  0
  5  6  1  0  0  0
  6  7  1  0  0  0
M  END
> <minimizedAffinity>
-4.41387

$$$$
../data/sim100/96.pdb


  7  6  0  0  0  0  0  0  0  0999 V2000
   69.4023   48.8885   53.4812 C   0  0  0  0  0  0  0  0  0  0  0  0
   68.5418   50.4440   53.4796 Cl  0  0  0  0  0  0  0  0  0  0  0  0
   70.5091   48.9061   54.8823 Cl  0  0  0  0  0  0  0  0  0  0  0  0
   68.2797   47.5323   53.7403 Cl  0  0  0  0  0  0  0  0  0  0  0  0
   69.8175   49.6970   51.3146 O   0  0  0  0  0  0  0  0  0  0  0  0
   70.1634   48.6818   52.1891 C   0  0  0  0  0  0  0  0  0  0  0  0
   69.9391   47.4265   51.6765 O   0  0  0  0  0  0  0  0  0  0  0  0
  5  6  1  0  0  0
  6  7  1  0  0  0
  6  1  1  0  0  0
  1  2  1  0  0  0
  1  3  1  0  0  0
  1  4  1  0  0  0
M  END
> <minimizedAffinity>
-3.44809

$$$$
../data/sim100/97.pdb


  5  4  0  0  0  0  0  0  0  0999 V2000
   68.5182   47.3607   53.1762 C   0  0  0  0  0  0  0  0  0  0  0  0
   68.9640   46.6782   54.7592 Cl  0  0  0  0  0  0  0  0  0  0  0  0
   67.8482   46.0597   52.1617 Cl  0  0  0  0  0  0  0  0  0  0  0  0
   69.8330   47.1066   51.2495 O   0  0  0  0  0  0  0  0  0  0  0  0
   69.7867   47.8160   52.4660 C   0  0  0  0  0  0  0  0  0  0  0  0
  4  5  1  0  0  0
  5  1  1  0  0  0
  1  2  1  0  0  0
  1  3  1  0  0  0
M  END
> <minimizedAffinity>
-2.95092

$$$$
../data/sim100/98.pdb


  5  4  0  0  0  0  0  0  0  0999 V2000
   68.7552   46.7337   51.9307 C   0  0  0  0  0  0  0  0  0  0  0  0
   68.8996   47.8060   52.9962 C   0  0  0  0  0  0  0  0  0  0  0  0
   68.8972   47.1015   54.3312 C   0  0  0  0  0  0  0  0  0  0  0  0
   70.1997   48.5260   52.7272 C   0  0  0  0  0  0  0  0  0  0  0  0
   70.2722   48.8851   51.3861 O   0  0  0  0  0  0  0  0  0  0  0  0
  1  2  1  0  0  0
  2  3  1  0  0  0
  2  4  1  0  0  0
  4  5  1  0  0  0
M  END
> <minimizedAffinity>
-3.25430

$$$$
../data/sim100/99.pdb


  8  7  0  0  0  0  0  0  0  0999 V2000
   69.5101   47.1466   52.6954 C   0  0  0  0  0  0  0  0  0  0  0  0
   69.7132   47.1167   51.2899 O   0  0  0  0  0  0  0  0  0  0  0  0
   69.1696   48.9914   54.3871 C   0  0  0  0  0  0  0  0  0  0  0  0
   69.8374   48.5159   53.1484 C   0  0  0  0  0  0  0  0  0  0  0  0
   69.6428   49.4902   51.9916 C   0  0  0  0  0  0  0  0  0  0  0  0
   68.1089   46.6822   52.9030 C   0  0  0  0  0  0  0  0  0  0  0  0
   67.6684   46.1567   51.5184 C   0  0  0  0  0  0  0  0  0  0  0  0
   67.9630   45.4891   53.8197 C   0  0  0  0  0  0  0  0  0  0  0  0
  3  4  1  0  0  0
  4  5  1  0  0  0
  4  1  1  0  0  0
  1  2  1  0  0  0
  1  6  1  0  0  0
  6  7  1  0  0  0
  6  8  1  0  0  0
M  END
> <minimizedAffinity>
-4.27060

$$$$
