../data/sim100/2.pdb


 10 10  0  0  0  0  0  0  0  0999 V2000
   71.6207   49.7687   53.9734 O   0  0  0  0  0  0  0  0  0  0  0  0
   70.3072   49.9689   54.4505 C   0  0  0  0  0  0  0  0  0  0  0  0
   69.8044   48.6328   54.8563 C   0  0  0  0  0  0  0  0  0  0  0  0
   69.4336   47.8238   53.8853 C   0  0  0  0  0  0  0  0  0  0  0  0
   69.5236   48.2500   52.4939 C   0  0  0  0  0  0  0  0  0  0  0  0
   68.7044   47.4299   51.7154 O   0  0  0  0  0  0  0  0  0  0  0  0
   69.1633   49.6771   52.2341 C   0  0  0  0  0  0  0  0  0  0  0  0
   69.7864   50.1757   51.0901 O   0  0  0  0  0  0  0  0  0  0  0  0
   69.5018   50.6131   53.3558 C   0  0  0  0  0  0  0  0  0  0  0  0
   68.3403   51.1163   53.9405 O   0  0  0  0  0  0  0  0  0  0  0  0
  2  1  1  0  0  0
  2  3  1  0  0  0
  2  9  1  0  0  0
  3  4  2  0  0  0
  4  5  1  0  0  0
  5  6  1  0  0  0
  5  7  1  0  0  0
  7  8  1  0  0  0
  7  9  1  0  0  0
  9 10  1  0  0  0
M  END
> <minimizedAffinity>
-4.75302

$$$$
../data/sim100/3.pdb


 12 12  0  0  0  0  0  0  0  0999 V2000
   69.7485   49.3211   51.5112 O   0  0  0  0  0  0  0  0  0  0  0  0
   70.2149   48.5207   52.5815 C   0  0  0  0  0  0  0  0  0  0  0  0
   69.9593   49.2064   53.8567 C   0  0  0  0  0  0  0  0  0  0  0  0
   69.0269   50.2528   53.6534 O   0  0  0  0  0  0  0  0  0  0  0  0
   69.5478   48.3942   55.0156 C   0  0  0  0  0  0  0  0  0  0  0  0
   68.7312   49.2040   55.8436 O   0  0  0  0  0  0  0  0  0  0  0  0
   68.8200   47.1407   54.7588 C   0  0  0  0  0  0  0  0  0  0  0  0
   67.6041   47.0660   55.4806 O   0  0  0  0  0  0  0  0  0  0  0  0
   68.4767   46.8731   53.3273 C   0  0  0  0  0  0  0  0  0  0  0  0
   68.2122   45.4861   53.2215 O   0  0  0  0  0  0  0  0  0  0  0  0
   69.6081   47.1741   52.4111 C   0  0  0  0  0  0  0  0  0  0  0  0
   69.1410   46.9852   51.0981 O   0  0  0  0  0  0  0  0  0  0  0  0
  2  1  1  0  0  0
  2  3  1  0  0  0
  2 11  1  0  0  0
  3  4  1  0  0  0
  3  5  1  0  0  0
  5  6  1  0  0  0
  5  7  1  0  0  0
  7  8  1  0  0  0
  7  9  1  0  0  0
  9 10  1  0  0  0
  9 11  1  0  0  0
 11 12  1  0  0  0
M  END
> <minimizedAffinity>
-5.78130

$$$$
../data/sim100/4.pdb


  4  3  0  0  0  0  0  0  0  0999 V2000
   62.3651   45.5878   41.3202 Br  0  0  0  0  0  0  0  0  0  0  0  0
   63.4268   45.3581   42.9239 C   0  0  0  0  0  0  0  0  0  0  0  0
   64.4781   43.7511   42.7126 Br  0  0  0  0  0  0  0  0  0  0  0  0
   62.2989   45.1415   44.4662 Br  0  0  0  0  0  0  0  0  0  0  0  0
  1  2  1  0  0  0
  2  3  1  0  0  0
  2  4  1  0  0  0
M  END
> <minimizedAffinity>
-2.70475

$$$$
../data/sim100/5.pdb


  4  3  0  0  0  0  0  0  0  0999 V2000
   62.2340   45.3505   44.5981 C   0  0  0  0  0  0  0  0  0  0  0  0
   63.2392   44.2253   44.6451 C   0  0  0  0  0  0  0  0  0  0  0  0
   64.0025   44.2312   43.3417 C   0  0  0  0  0  0  0  0  0  0  0  0
   64.1654   44.5556   45.6483 O   0  0  0  0  0  0  0  0  0  0  0  0
  1  2  1  0  0  0
  2  3  1  0  0  0
  2  4  1  0  0  0
M  END
> <minimizedAffinity>
-3.39209

$$$$
../data/sim100/6.pdb


  4  3  0  0  0  0  0  0  0  0999 V2000
   64.1260   44.1305   43.0780 C   0  0  0  0  0  0  0  0  0  0  0  0
   63.0892   44.9211   43.0764 C   0  0  0  0  0  0  0  0  0  0  0  0
   62.2053   45.3668   44.5110 Cl  0  0  0  0  0  0  0  0  0  0  0  0
   62.5361   45.5822   41.5612 Cl  0  0  0  0  0  0  0  0  0  0  0  0
  1  2  2  0  0  0
  2  3  1  0  0  0
  2  4  1  0  0  0
M  END
> <minimizedAffinity>
-3.35347

$$$$
../data/sim100/7.pdb


  4  3  0  0  0  0  0  0  0  0999 V2000
   62.3802   45.1284   44.6371 C   0  0  0  0  0  0  0  0  0  0  0  0
   63.5547   44.5513   44.8137 C   0  0  0  0  0  0  0  0  0  0  0  0
   64.1805   44.6957   46.0065 F   0  0  0  0  0  0  0  0  0  0  0  0
   64.1565   43.8183   43.8424 F   0  0  0  0  0  0  0  0  0  0  0  0
  1  2  2  0  0  0
  2  3  1  0  0  0
  2  4  1  0  0  0
M  END
> <minimizedAffinity>
-3.23818

$$$$
../data/sim100/8.pdb


  4  3  0  0  0  0  0  0  0  0999 V2000
   62.6493   45.4316   41.7401 C   0  0  0  0  0  0  0  0  0  0  0  0
   63.5335   45.1138   42.9092 C   0  0  0  0  0  0  0  0  0  0  0  0
   64.3095   43.8310   42.6167 C   0  0  0  0  0  0  0  0  0  0  0  0
   62.5569   44.9872   44.5656 Br  0  0  0  0  0  0  0  0  0  0  0  0
  1  2  1  0  0  0
  2  3  1  0  0  0
  2  4  1  0  0  0
M  END
> <minimizedAffinity>
-3.42282

$$$$
../data/sim100/9.pdb


 10 10  0  0  0  0  0  0  0  0999 V2000
   68.7087   46.8515   51.9049 C   0  0  0  0  0  0  0  0  0  0  0  0
   68.9412   47.5495   53.1918 C   0  0  0  0  0  0  0  0  0  0  0  0
   68.6349   46.9529   54.3237 C   0  0  0  0  0  0  0  0  0  0  0  0
   68.0593   45.5837   54.2683 C   0  0  0  0  0  0  0  0  0  0  0  0
   68.8358   47.5778   55.6300 C   0  0  0  0  0  0  0  0  0  0  0  0
   67.7046   47.3723   56.4548 O   0  0  0  0  0  0  0  0  0  0  0  0
   69.1715   48.9964   55.5943 C   0  0  0  0  0  0  0  0  0  0  0  0
   69.4825   49.6020   54.4667 C   0  0  0  0  0  0  0  0  0  0  0  0
   69.5182   48.9126   53.1532 C   0  0  0  0  0  0  0  0  0  0  0  0
   70.8147   48.8207   52.6498 O   0  0  0  0  0  0  0  0  0  0  0  0
  1  2  1  0  0  0
  2  3  2  0  0  0
  2  9  1  0  0  0
  3  4  1  0  0  0
  3  5  1  0  0  0
  5  6  1  0  0  0
  5  7  1  0  0  0
  7  8  2  0  0  0
  8  9  1  0  0  0
  9 10  1  0  0  0
M  END
> <minimizedAffinity>
-5.67606

$$$$
../data/sim100/10.pdb


 10 10  0  0  0  0  0  0  0  0999 V2000
   69.4641   49.8213   55.0307 N   0  0  0  0  0  0  0  0  0  0  0  0
   68.9193   48.7482   54.2567 C   0  0  0  0  0  0  0  0  0  0  0  0
   68.6279   47.5321   55.0608 C   0  0  0  0  0  0  0  0  0  0  0  0
   68.4477   46.3899   54.4087 C   0  0  0  0  0  0  0  0  0  0  0  0
   68.5214   46.2617   52.9328 C   0  0  0  0  0  0  0  0  0  0  0  0
   67.2638   45.9196   52.3915 O   0  0  0  0  0  0  0  0  0  0  0  0
   69.0486   47.4615   52.2247 C   0  0  0  0  0  0  0  0  0  0  0  0
   69.7547   47.0564   51.0976 O   0  0  0  0  0  0  0  0  0  0  0  0
   69.8976   48.2704   53.1726 C   0  0  0  0  0  0  0  0  0  0  0  0
   70.5093   49.3549   52.5623 O   0  0  0  0  0  0  0  0  0  0  0  0
  2  1  1  0  0  0
  2  3  1  0  0  0
  2  9  1  0  0  0
  3  4  2  0  0  0
  4  5  1  0  0  0
  5  6  1  0  0  0
  5  7  1  0  0  0
  7  8  1  0  0  0
  7  9  1  0  0  0
  9 10  1  0  0  0
M  CHG 1   1   1
M  END
> <minimizedAffinity>
-5.38011

$$$$
../data/sim100/11.pdb


 19 20  0  0  0  0  0  0  0  0999 V2000
   70.5276   49.0816   54.0716 O   0  0  0  0  0  0  0  0  0  0  0  0
   69.3706   53.6980   56.5023 O   0  0  0  0  0  0  0  0  0  0  0  0
   70.0982   53.0067   55.5294 C   0  0  0  0  0  0  0  0  0  0  0  0
   69.1289   52.3086   54.6561 C   0  0  0  0  0  0  0  0  0  0  0  0
   69.1710   51.0126   54.3789 C   0  0  0  0  0  0  0  0  0  0  0  0
   70.2171   50.1058   54.9286 C   0  0  0  0  0  0  0  0  0  0  0  0
   71.4340   50.9980   55.2095 C   0  0  0  0  0  0  0  0  0  0  0  0
   72.4658   50.2147   55.6604 O   0  0  0  0  0  0  0  0  0  0  0  0
   70.9527   51.9952   56.2710 C   0  0  0  0  0  0  0  0  0  0  0  0
   70.1073   51.3206   57.1459 O   0  0  0  0  0  0  0  0  0  0  0  0
   69.3945   48.3923   53.7228 C   0  0  0  0  0  0  0  0  0  0  0  0
   69.0152   47.3670   54.7496 C   0  0  0  0  0  0  0  0  0  0  0  0
   68.5154   46.1911   54.4035 C   0  0  0  0  0  0  0  0  0  0  0  0
   68.2688   45.7392   53.0089 C   0  0  0  0  0  0  0  0  0  0  0  0
   67.0195   45.1315   52.9896 O   0  0  0  0  0  0  0  0  0  0  0  0
   68.2890   46.9558   52.1133 C   0  0  0  0  0  0  0  0  0  0  0  0
   68.1845   46.6183   50.7774 O   0  0  0  0  0  0  0  0  0  0  0  0
   69.6275   47.6463   52.4101 C   0  0  0  0  0  0  0  0  0  0  0  0
   69.9884   48.5049   51.3925 O   0  0  0  0  0  0  0  0  0  0  0  0
  3  2  1  0  0  0
  3  4  1  0  0  0
  3  9  1  0  0  0
  4  5  2  0  0  0
  5  6  1  0  0  0
  6  1  1  0  0  0
  6  7  1  0  0  0
 11  1  1  0  0  0
 11 12  1  0  0  0
 11 18  1  0  0  0
 12 13  2  0  0  0
 13 14  1  0  0  0
 14 15  1  0  0  0
 14 16  1  0  0  0
 16 17  1  0  0  0
 16 18  1  0  0  0
 18 19  1  0  0  0
  7  8  1  0  0  0
  7  9  1  0  0  0
  9 10  1  0  0  0
M  END
> <minimizedAffinity>
-7.44895

$$$$
../data/sim100/12.pdb


 13 13  0  0  0  0  0  0  0  0999 V2000
   69.8561   49.2051   53.6726 C   0  0  0  0  0  0  0  0  0  0  0  0
   68.9700   48.3633   54.4770 C   0  0  0  0  0  0  0  0  0  0  0  0
   68.5174   47.2072   54.0721 C   0  0  0  0  0  0  0  0  0  0  0  0
   68.8642   46.6649   52.7765 C   0  0  0  0  0  0  0  0  0  0  0  0
   69.6467   47.3512   52.0007 C   0  0  0  0  0  0  0  0  0  0  0  0
   70.2057   48.6518   52.3589 C   0  0  0  0  0  0  0  0  0  0  0  0
   69.7406   49.5517   51.3531 O   0  0  0  0  0  0  0  0  0  0  0  0
   71.0111   49.4341   54.4935 O   0  0  0  0  0  0  0  0  0  0  0  0
   70.6546   51.7777   54.5823 C   0  0  0  0  0  0  0  0  0  0  0  0
   71.4540   50.7413   54.6305 C   0  0  0  0  0  0  0  0  0  0  0  0
   72.8729   50.9440   54.8363 C   0  0  0  0  0  0  0  0  0  0  0  0
   73.2365   51.5045   55.9159 O   0  0  0  0  0  0  0  0  0  0  0  0
   73.8281   50.5471   53.8953 O   0  0  0  0  0  0  0  0  0  0  0  0
  9 10  2  0  0  0
 10  8  1  0  0  0
 10 11  1  0  0  0
  1  8  1  0  0  0
  1  2  1  0  0  0
  1  6  1  0  0  0
  2  3  2  0  0  0
  3  4  1  0  0  0
  4  5  2  0  0  0
  5  6  1  0  0  0
  6  7  1  0  0  0
 11 12  2  0  0  0
 11 13  1  0  0  0
M  END
> <minimizedAffinity>
-5.95119

$$$$
../data/sim100/13.pdb


  6  6  0  0  0  0  0  0  0  0999 V2000
   68.5800   46.7532   51.7999 C   0  0  0  0  0  0  0  0  0  0  0  0
   67.9464   45.8105   52.5555 C   0  0  0  0  0  0  0  0  0  0  0  0
   67.9970   45.9116   53.9160 C   0  0  0  0  0  0  0  0  0  0  0  0
   68.6822   46.9606   54.5180 C   0  0  0  0  0  0  0  0  0  0  0  0
   69.3205   47.9105   53.7614 C   0  0  0  0  0  0  0  0  0  0  0  0
   69.2711   47.8111   52.4045 C   0  0  0  0  0  0  0  0  0  0  0  0
  1  2  2  0  0  0
  1  6  1  0  0  0
  2  3  1  0  0  0
  3  4  2  0  0  0
  4  5  1  0  0  0
  5  6  2  0  0  0
M  END
> <minimizedAffinity>
-3.99691

$$$$
../data/sim100/14.pdb


  2  1  0  0  0  0  0  0  0  0999 V2000
   62.1843   44.3554   60.0774 O   0  0  0  0  0  0  0  0  0  0  0  0
   62.4784   43.2833   61.3731 Cl  0  0  0  0  0  0  0  0  0  0  0  0
  1  2  1  0  0  0
M  END
> <minimizedAffinity>
-1.87722

$$$$
../data/sim100/15.pdb


  4  3  0  0  0  0  0  0  0  0999 V2000
   64.1746   44.5161   45.6755 O   0  0  0  0  0  0  0  0  0  0  0  0
   62.9743   44.5408   44.9835 C   0  0  0  0  0  0  0  0  0  0  0  0
   63.3425   44.6292   43.4985 C   0  0  0  0  0  0  0  0  0  0  0  0
   62.7885   45.7404   42.9133 O   0  0  0  0  0  0  0  0  0  0  0  0
  1  2  1  0  0  0
  2  3  1  0  0  0
  3  4  1  0  0  0
M  END
> <minimizedAffinity>
-2.92554

$$$$
../data/sim100/16.pdb


  6  5  0  0  0  0  0  0  0  0999 V2000
   69.2772   47.1068   56.4848 Br  0  0  0  0  0  0  0  0  0  0  0  0
   68.6303   47.7852   54.8189 C   0  0  0  0  0  0  0  0  0  0  0  0
   68.0532   46.2709   53.7359 Br  0  0  0  0  0  0  0  0  0  0  0  0
   69.6757   48.5304   54.0303 C   0  0  0  0  0  0  0  0  0  0  0  0
   69.7284   47.8700   52.1966 Br  0  0  0  0  0  0  0  0  0  0  0  0
   69.0981   50.3775   53.9150 Br  0  0  0  0  0  0  0  0  0  0  0  0
  1  2  1  0  0  0
  2  3  1  0  0  0
  2  4  1  0  0  0
  4  5  1  0  0  0
  4  6  1  0  0  0
M  END
> <minimizedAffinity>
-3.03333

$$$$
../data/sim100/17.pdb


  6  5  0  0  0  0  0  0  0  0999 V2000
   69.1609   49.7992   53.5842 C   0  0  0  0  0  0  0  0  0  0  0  0
   69.7922   48.9792   52.5028 C   0  0  0  0  0  0  0  0  0  0  0  0
   69.7768   49.7140   51.3163 O   0  0  0  0  0  0  0  0  0  0  0  0
   69.0680   47.6918   52.2347 C   0  0  0  0  0  0  0  0  0  0  0  0
   68.7957   46.8773   53.4544 C   0  0  0  0  0  0  0  0  0  0  0  0
   69.8691   46.9308   51.3811 O   0  0  0  0  0  0  0  0  0  0  0  0
  2  1  1  0  0  0
  2  3  1  0  0  0
  2  4  1  0  0  0
  4  5  1  0  0  0
  4  6  1  0  0  0
M  END
> <minimizedAffinity>
-3.82791

$$$$
../data/sim100/18.pdb


 12 12  0  0  0  0  0  0  0  0999 V2000
   68.5657   47.0979   51.3857 O   0  0  0  0  0  0  0  0  0  0  0  0
   69.3596   47.1970   52.5530 C   0  0  0  0  0  0  0  0  0  0  0  0
   69.7521   48.6138   52.7286 C   0  0  0  0  0  0  0  0  0  0  0  0
   71.1409   48.7311   52.4785 O   0  0  0  0  0  0  0  0  0  0  0  0
   69.4535   49.2167   54.0445 C   0  0  0  0  0  0  0  0  0  0  0  0
   68.1868   49.8115   54.0202 F   0  0  0  0  0  0  0  0  0  0  0  0
   69.5171   48.3304   55.2229 C   0  0  0  0  0  0  0  0  0  0  0  0
   68.8124   48.9759   56.2694 O   0  0  0  0  0  0  0  0  0  0  0  0
   69.0281   46.9462   55.0339 C   0  0  0  0  0  0  0  0  0  0  0  0
   67.9290   46.7280   55.8942 O   0  0  0  0  0  0  0  0  0  0  0  0
   68.5937   46.5891   53.6625 C   0  0  0  0  0  0  0  0  0  0  0  0
   67.2236   46.8192   53.4880 F   0  0  0  0  0  0  0  0  0  0  0  0
  2  1  1  0  0  0
  2  3  1  0  0  0
  2 11  1  0  0  0
  3  4  1  0  0  0
  3  5  1  0  0  0
  5  6  1  0  0  0
  5  7  1  0  0  0
  7  8  1  0  0  0
  7  9  1  0  0  0
  9 10  1  0  0  0
  9 11  1  0  0  0
 11 12  1  0  0  0
M  END
> <minimizedAffinity>
-5.50729

$$$$
../data/sim100/19.pdb


  8  7  0  0  0  0  0  0  0  0999 V2000
   68.0149   46.5438   53.3648 C   0  0  0  0  0  0  0  0  0  0  0  0
   67.2568   45.4969   52.8296 O   0  0  0  0  0  0  0  0  0  0  0  0
   68.0053   44.8483   54.9711 O   0  0  0  0  0  0  0  0  0  0  0  0
   68.5566   46.1156   54.6994 C   0  0  0  0  0  0  0  0  0  0  0  0
   69.0756   46.8890   52.3675 C   0  0  0  0  0  0  0  0  0  0  0  0
   68.4819   46.9162   51.1061 O   0  0  0  0  0  0  0  0  0  0  0  0
   69.7234   48.2235   52.6757 C   0  0  0  0  0  0  0  0  0  0  0  0
   70.3011   48.7082   51.4907 O   0  0  0  0  0  0  0  0  0  0  0  0
  3  4  1  0  0  0
  4  1  1  0  0  0
  1  2  1  0  0  0
  1  5  1  0  0  0
  5  6  1  0  0  0
  5  7  1  0  0  0
  7  8  1  0  0  0
M  END
> <minimizedAffinity>
-4.10337

$$$$
../data/sim100/21.pdb


 12 12  0  0  0  0  0  0  0  0999 V2000
   70.0636   49.4661   51.3286 O   0  0  0  0  0  0  0  0  0  0  0  0
   69.4701   48.9477   52.4567 C   0  0  0  0  0  0  0  0  0  0  0  0
   68.9112   47.5751   52.2587 C   0  0  0  0  0  0  0  0  0  0  0  0
   69.7675   46.9411   51.3248 O   0  0  0  0  0  0  0  0  0  0  0  0
   68.7405   46.7678   53.4773 C   0  0  0  0  0  0  0  0  0  0  0  0
   67.4648   46.1550   53.4127 O   0  0  0  0  0  0  0  0  0  0  0  0
   68.8789   47.4108   54.7843 C   0  0  0  0  0  0  0  0  0  0  0  0
   69.5343   46.5599   55.6894 F   0  0  0  0  0  0  0  0  0  0  0  0
   69.6006   48.7108   54.8309 C   0  0  0  0  0  0  0  0  0  0  0  0
   68.6644   49.7648   54.7464 O   0  0  0  0  0  0  0  0  0  0  0  0
   70.4774   48.8323   53.5974 C   0  0  0  0  0  0  0  0  0  0  0  0
   71.2857   49.9648   53.6617 O   0  0  0  0  0  0  0  0  0  0  0  0
  2  1  1  0  0  0
  2  3  1  0  0  0
  2 11  1  0  0  0
  3  4  1  0  0  0
  3  5  1  0  0  0
  5  6  1  0  0  0
  5  7  1  0  0  0
  7  8  1  0  0  0
  7  9  1  0  0  0
  9 10  1  0  0  0
  9 11  1  0  0  0
 11 12  1  0  0  0
M  END
> <minimizedAffinity>
-5.66848

$$$$
../data/sim100/22.pdb


  6  5  0  0  0  0  0  0  0  0999 V2000
   69.9712   48.1325   52.4691 C   0  0  0  0  0  0  0  0  0  0  0  0
   70.0993   49.0428   51.4126 O   0  0  0  0  0  0  0  0  0  0  0  0
   69.3157   50.3112   53.3255 C   0  0  0  0  0  0  0  0  0  0  0  0
   69.2719   48.8205   53.5818 C   0  0  0  0  0  0  0  0  0  0  0  0
   69.2739   46.9202   51.9317 C   0  0  0  0  0  0  0  0  0  0  0  0
   68.2074   46.3856   52.8417 C   0  0  0  0  0  0  0  0  0  0  0  0
  3  4  1  0  0  0
  4  1  1  0  0  0
  1  2  1  0  0  0
  1  5  1  0  0  0
  5  6  1  0  0  0
M  END
> <minimizedAffinity>
-3.63554

$$$$
../data/sim100/24.pdb


  6  5  0  0  0  0  0  0  0  0999 V2000
   68.9684   47.4340   52.2691 C   0  0  0  0  0  0  0  0  0  0  0  0
   69.8334   47.0329   51.2576 O   0  0  0  0  0  0  0  0  0  0  0  0
   67.2955   45.6398   52.0917 N   0  0  0  0  0  0  0  0  0  0  0  0
   68.3038   46.2185   52.9220 C   0  0  0  0  0  0  0  0  0  0  0  0
   69.6496   48.1961   53.3563 C   0  0  0  0  0  0  0  0  0  0  0  0
   70.7704   48.9749   52.9213 N   0  0  0  0  0  0  0  0  0  0  0  0
  3  4  1  0  0  0
  4  1  1  0  0  0
  1  2  1  0  0  0
  1  5  1  0  0  0
  5  6  1  0  0  0
M  CHG 1   3   1
M  CHG 1   6   1
M  END
> <minimizedAffinity>
-3.50253

$$$$
../data/sim100/26.pdb


  6  5  0  0  0  0  0  0  0  0999 V2000
   64.7706   43.3421   43.0209 N   0  0  0  0  0  0  0  0  0  0  0  0
   64.0263   44.5899   43.1875 C   0  0  0  0  0  0  0  0  0  0  0  0
   63.1213   44.7818   41.9824 C   0  0  0  0  0  0  0  0  0  0  0  0
   62.6524   46.0774   42.0186 O   0  0  0  0  0  0  0  0  0  0  0  0
   63.2283   44.4459   44.4619 C   0  0  0  0  0  0  0  0  0  0  0  0
   64.1303   44.4086   45.5235 O   0  0  0  0  0  0  0  0  0  0  0  0
  1  2  1  0  0  0
  2  3  1  0  0  0
  2  5  1  0  0  0
  3  4  1  0  0  0
  5  6  1  0  0  0
M  CHG 1   1   1
M  END
> <minimizedAffinity>
-3.79498

$$$$
../data/sim100/27.pdb


 10 10  0  0  0  0  0  0  0  0999 V2000
   71.9318   53.0735   57.0561 N   0  0  0  0  0  0  0  0  0  0  0  0
   72.2129   53.0516   55.6293 C   0  0  0  0  0  0  0  0  0  0  0  0
   72.3182   51.6269   55.1250 C   0  0  0  0  0  0  0  0  0  0  0  0
   71.5613   51.4488   53.9464 O   0  0  0  0  0  0  0  0  0  0  0  0
   73.7822   51.4512   54.8051 C   0  0  0  0  0  0  0  0  0  0  0  0
   74.0332   50.4550   53.9060 O   0  0  0  0  0  0  0  0  0  0  0  0
   74.1300   52.8381   54.2866 C   0  0  0  0  0  0  0  0  0  0  0  0
   73.3536   53.1720   53.1693 O   0  0  0  0  0  0  0  0  0  0  0  0
   73.5613   53.6892   55.4323 C   0  0  0  0  0  0  0  0  0  0  0  0
   73.4660   55.0061   55.0406 O   0  0  0  0  0  0  0  0  0  0  0  0
  2  1  1  0  0  0
  2  3  1  0  0  0
  2  9  1  0  0  0
  3  4  1  0  0  0
  3  5  1  0  0  0
  5  6  1  0  0  0
  5  7  1  0  0  0
  7  8  1  0  0  0
  7  9  1  0  0  0
  9 10  1  0  0  0
M  CHG 1   1   1
M  END
> <minimizedAffinity>
-4.90530

$$$$
../data/sim100/28.pdb


 12 12  0  0  0  0  0  0  0  0999 V2000
   74.0612   53.2466   53.0749 N   0  0  0  0  0  0  0  0  0  0  0  0
   73.2744   52.8866   54.2145 C   0  0  0  0  0  0  0  0  0  0  0  0
   73.4635   53.8608   55.3524 C   0  0  0  0  0  0  0  0  0  0  0  0
   73.2408   55.1656   54.9636 O   0  0  0  0  0  0  0  0  0  0  0  0
   72.5737   53.5146   56.5090 C   0  0  0  0  0  0  0  0  0  0  0  0
   71.2498   53.8910   56.3214 O   0  0  0  0  0  0  0  0  0  0  0  0
   72.6479   52.0674   56.8975 C   0  0  0  0  0  0  0  0  0  0  0  0
   73.9456   51.8443   57.3979 O   0  0  0  0  0  0  0  0  0  0  0  0
   72.5009   51.1406   55.7046 C   0  0  0  0  0  0  0  0  0  0  0  0
   71.3319   51.3993   54.9860 O   0  0  0  0  0  0  0  0  0  0  0  0
   73.6563   51.5077   54.7662 C   0  0  0  0  0  0  0  0  0  0  0  0
   73.8349   50.5805   53.7689 O   0  0  0  0  0  0  0  0  0  0  0  0
  2  1  1  0  0  0
  2  3  1  0  0  0
  2 11  1  0  0  0
  3  4  1  0  0  0
  3  5  1  0  0  0
  5  6  1  0  0  0
  5  7  1  0  0  0
  7  8  1  0  0  0
  7  9  1  0  0  0
  9 10  1  0  0  0
  9 11  1  0  0  0
 11 12  1  0  0  0
M  CHG 1   1   1
M  END
> <minimizedAffinity>
-5.53704

$$$$
../data/sim100/29.pdb


 14 14  0  0  0  0  0  0  0  0999 V2000
   69.3335   48.2073   54.6489 C   0  0  0  0  0  0  0  0  0  0  0  0
   68.9673   46.8178   55.1216 C   0  0  0  0  0  0  0  0  0  0  0  0
   68.3625   46.8862   56.3768 O   0  0  0  0  0  0  0  0  0  0  0  0
   68.0149   46.1175   54.1988 C   0  0  0  0  0  0  0  0  0  0  0  0
   67.8484   44.8184   54.6693 O   0  0  0  0  0  0  0  0  0  0  0  0
   68.5201   46.0433   52.7778 C   0  0  0  0  0  0  0  0  0  0  0  0
   69.6586   47.0105   52.5386 C   0  0  0  0  0  0  0  0  0  0  0  0
   69.7614   47.2027   51.1619 O   0  0  0  0  0  0  0  0  0  0  0  0
   69.2638   48.3502   53.1647 C   0  0  0  0  0  0  0  0  0  0  0  0
   70.2136   49.2846   52.7721 O   0  0  0  0  0  0  0  0  0  0  0  0
   69.3609   50.1208   55.9504 C   0  0  0  0  0  0  0  0  0  0  0  0
   68.6145   49.1190   55.3589 O   0  0  0  0  0  0  0  0  0  0  0  0
   67.4764   46.4001   51.9324 O   0  0  0  0  0  0  0  0  0  0  0  0
   67.0443   45.2650   51.2544 C   0  0  0  0  0  0  0  0  0  0  0  0
 11 12  1  0  0  0
  1 12  1  0  0  0
  1  2  1  0  0  0
  1  9  1  0  0  0
  2  3  1  0  0  0
  2  4  1  0  0  0
  4  5  1  0  0  0
  4  6  1  0  0  0
  6 13  1  0  0  0
  6  7  1  0  0  0
 13 14  1  0  0  0
  7  8  1  0  0  0
  7  9  1  0  0  0
  9 10  1  0  0  0
M  END
> <minimizedAffinity>
-5.42173

$$$$
../data/sim100/30.pdb


 13 13  0  0  0  0  0  0  0  0999 V2000
   68.5997   47.6913   55.0090 C   0  0  0  0  0  0  0  0  0  0  0  0
   69.5311   48.6970   54.4288 C   0  0  0  0  0  0  0  0  0  0  0  0
   68.9644   49.9724   54.6462 O   0  0  0  0  0  0  0  0  0  0  0  0
   69.9167   48.4655   53.0191 C   0  0  0  0  0  0  0  0  0  0  0  0
   69.8834   49.7154   52.3564 O   0  0  0  0  0  0  0  0  0  0  0  0
   69.0803   47.5251   52.2477 C   0  0  0  0  0  0  0  0  0  0  0  0
   69.8261   47.1526   51.1020 O   0  0  0  0  0  0  0  0  0  0  0  0
   68.6934   46.2725   52.9375 C   0  0  0  0  0  0  0  0  0  0  0  0
   67.3883   45.9341   52.5080 O   0  0  0  0  0  0  0  0  0  0  0  0
   68.7330   46.3152   54.4236 C   0  0  0  0  0  0  0  0  0  0  0  0
   67.6742   45.5346   54.9071 O   0  0  0  0  0  0  0  0  0  0  0  0
   67.8273   47.7777   57.2907 O   0  0  0  0  0  0  0  0  0  0  0  0
   68.9375   47.5649   56.5011 C   0  0  0  0  0  0  0  0  0  0  0  0
 12 13  1  0  0  0
  1 13  1  0  0  0
  1  2  1  0  0  0
  1 10  1  0  0  0
  2  3  1  0  0  0
  2  4  1  0  0  0
  4  5  1  0  0  0
  4  6  1  0  0  0
  6  7  1  0  0  0
  6  8  1  0  0  0
  8  9  1  0  0  0
  8 10  1  0  0  0
 10 11  1  0  0  0
M  END
> <minimizedAffinity>
-6.15759

$$$$
../data/sim100/31.pdb


  2  1  0  0  0  0  0  0  0  0999 V2000
   62.1243   44.4669   60.2230 O   0  0  0  0  0  0  0  0  0  0  0  0
   61.7672   45.3208   60.9189 O   0  0  0  0  0  0  0  0  0  0  0  0
  1  2  2  0  0  0
M  END
> <minimizedAffinity>
-2.09322

$$$$
../data/sim100/32.pdb


  9  9  0  0  0  0  0  0  0  0999 V2000
   67.4255   45.3252   52.0782 C   0  0  0  0  0  0  0  0  0  0  0  0
   68.4644   46.2405   52.6553 C   0  0  0  0  0  0  0  0  0  0  0  0
   68.7389   47.3146   51.7746 O   0  0  0  0  0  0  0  0  0  0  0  0
   69.6199   48.2880   52.2055 C   0  0  0  0  0  0  0  0  0  0  0  0
   70.3312   48.9524   51.3793 O   0  0  0  0  0  0  0  0  0  0  0  0
   69.7112   48.5310   53.6248 C   0  0  0  0  0  0  0  0  0  0  0  0
   68.9814   47.8496   54.4760 C   0  0  0  0  0  0  0  0  0  0  0  0
   68.0419   46.8098   53.9951 C   0  0  0  0  0  0  0  0  0  0  0  0
   68.0215   45.7990   54.9690 O   0  0  0  0  0  0  0  0  0  0  0  0
  2  1  1  0  0  0
  2  3  1  0  0  0
  2  8  1  0  0  0
  3  4  1  0  0  0
  4  5  2  0  0  0
  4  6  1  0  0  0
  6  7  2  0  0  0
  7  8  1  0  0  0
  8  9  1  0  0  0
M  END
> <minimizedAffinity>
-5.04524

$$$$
../data/sim100/34.pdb


  3  2  0  0  0  0  0  0  0  0999 V2000
   62.8713   44.5269   44.9352 C   0  0  0  0  0  0  0  0  0  0  0  0
   64.0524   44.0183   44.4641 O   0  0  0  0  0  0  0  0  0  0  0  0
   64.1445   44.0498   43.0728 C   0  0  0  0  0  0  0  0  0  0  0  0
  1  2  1  0  0  0
  2  3  1  0  0  0
M  END
> <minimizedAffinity>
-2.23316

$$$$
../data/sim100/35.pdb


  4  3  0  0  0  0  0  0  0  0999 V2000
   67.9582   45.8721   52.8526 I   0  0  0  0  0  0  0  0  0  0  0  0
   68.3024   47.6792   53.9143 C   0  0  0  0  0  0  0  0  0  0  0  0
   68.9539   47.1573   55.8884 I   0  0  0  0  0  0  0  0  0  0  0  0
   69.8718   48.7665   52.9585 I   0  0  0  0  0  0  0  0  0  0  0  0
  1  2  1  0  0  0
  2  3  1  0  0  0
  2  4  1  0  0  0
M  END
> <minimizedAffinity>
-2.34140

$$$$
../data/sim100/36.pdb


  4  3  0  0  0  0  0  0  0  0999 V2000
   70.0480   49.0742   55.1315 C   0  0  0  0  0  0  0  0  0  0  0  0
   69.0642   48.2367   53.7765 P   0  0  0  0  0  0  0  0  0  0  0  0
   70.0703   48.2869   52.2419 C   0  0  0  0  0  0  0  0  0  0  0  0
   68.6915   46.5246   54.3447 C   0  0  0  0  0  0  0  0  0  0  0  0
  1  2  1  0  0  0
  2  3  1  0  0  0
  2  4  1  0  0  0
M  END
> <minimizedAffinity>
-1.81638

$$$$
../data/sim100/37.pdb


  3  2  0  0  0  0  0  0  0  0999 V2000
   62.7078   44.5606   44.8450 C   0  0  0  0  0  0  0  0  0  0  0  0
   63.9952   44.0954   44.4427 N   0  0  0  0  0  0  0  0  0  0  0  0
   64.1560   44.0309   42.9926 C   0  0  0  0  0  0  0  0  0  0  0  0
  1  2  1  0  0  0
  2  3  1  0  0  0
M  CHG 1   2   1
M  END
> <minimizedAffinity>
-2.22979

$$$$
../data/sim100/38.pdb


  4  3  0  0  0  0  0  0  0  0999 V2000
   62.2605   45.2739   44.1387 Cl  0  0  0  0  0  0  0  0  0  0  0  0
   63.3495   45.3251   42.7283 C   0  0  0  0  0  0  0  0  0  0  0  0
   64.1441   43.7532   42.5927 Cl  0  0  0  0  0  0  0  0  0  0  0  0
   62.3379   45.5851   41.2786 Cl  0  0  0  0  0  0  0  0  0  0  0  0
  1  2  1  0  0  0
  2  3  1  0  0  0
  2  4  1  0  0  0
M  END
> <minimizedAffinity>
-3.15302

$$$$
../data/sim100/39.pdb


  3  2  0  0  0  0  0  0  0  0999 V2000
   62.9701   44.7829   44.9404 C   0  0  0  0  0  0  0  0  0  0  0  0
   63.6197   44.3920   43.8580 C   0  0  0  0  0  0  0  0  0  0  0  0
   64.2641   43.9575   42.8131 C   0  0  0  0  0  0  0  0  0  0  0  0
  1  2  2  0  0  0
  2  3  2  0  0  0
M  END
> <minimizedAffinity>
-2.68970

$$$$
../data/sim100/40.pdb


  4  3  0  0  0  0  0  0  0  0999 V2000
   62.6129   45.4365   41.6773 C   0  0  0  0  0  0  0  0  0  0  0  0
   63.4695   45.1267   42.8744 C   0  0  0  0  0  0  0  0  0  0  0  0
   62.7084   45.0014   44.1492 C   0  0  0  0  0  0  0  0  0  0  0  0
   64.2707   43.8586   42.6397 C   0  0  0  0  0  0  0  0  0  0  0  0
  1  2  1  0  0  0
  2  3  1  0  0  0
  2  4  1  0  0  0
M  END
> <minimizedAffinity>
-3.49228

$$$$
../data/sim100/41.pdb


  3  2  0  0  0  0  0  0  0  0999 V2000
   62.8543   45.3834   42.1192 C   0  0  0  0  0  0  0  0  0  0  0  0
   63.9456   44.2746   43.0747 S   0  0  0  0  0  0  0  0  0  0  0  0
   63.4739   44.4227   44.8404 C   0  0  0  0  0  0  0  0  0  0  0  0
  1  2  1  0  0  0
  2  3  1  0  0  0
M  END
> <minimizedAffinity>
-2.04615

$$$$
../data/sim100/42.pdb


  4  3  0  0  0  0  0  0  0  0999 V2000
   68.8243   47.2624   54.7650 S   0  0  0  0  0  0  0  0  0  0  0  0
   68.8570   47.1031   53.3481 C   0  0  0  0  0  0  0  0  0  0  0  0
   67.8731   45.7962   52.6633 S   0  0  0  0  0  0  0  0  0  0  0  0
   69.8478   48.1816   52.3623 S   0  0  0  0  0  0  0  0  0  0  0  0
  1  2  2  0  0  0
  2  3  1  0  0  0
  2  4  1  0  0  0
M  END
> <minimizedAffinity>
-1.93405

$$$$
../data/sim100/44.pdb


  4  3  0  0  0  0  0  0  0  0999 V2000
   67.9588   46.4238   51.5749 C   0  0  0  0  0  0  0  0  0  0  0  0
   68.9354   46.7385   52.6727 C   0  0  0  0  0  0  0  0  0  0  0  0
   68.1751   46.7856   53.9761 C   0  0  0  0  0  0  0  0  0  0  0  0
   69.8713   48.2533   52.3656 S   0  0  0  0  0  0  0  0  0  0  0  0
  1  2  1  0  0  0
  2  3  1  0  0  0
  2  4  1  0  0  0
M  END
> <minimizedAffinity>
-2.38374

$$$$
../data/sim100/46.pdb


  4  3  0  0  0  0  0  0  0  0999 V2000
   62.1892   45.3624   44.4791 C   0  0  0  0  0  0  0  0  0  0  0  0
   63.2292   44.2695   44.6007 C   0  0  0  0  0  0  0  0  0  0  0  0
   63.9700   44.2537   43.2722 C   0  0  0  0  0  0  0  0  0  0  0  0
   64.1160   44.5242   45.7134 N   0  0  0  0  0  0  0  0  0  0  0  0
  1  2  1  0  0  0
  2  3  1  0  0  0
  2  4  1  0  0  0
M  CHG 1   4   1
M  END
> <minimizedAffinity>
-3.37402

$$$$
../data/sim100/47.pdb


  3  2  0  0  0  0  0  0  0  0999 V2000
   62.5163   43.4511   61.3090 C   0  0  0  0  0  0  0  0  0  0  0  0
   62.1674   44.3192   60.4467 N   0  0  0  0  0  0  0  0  0  0  0  0
   61.6737   45.5149   60.8955 O   0  0  0  0  0  0  0  0  0  0  0  0
  1  2  2  0  0  0
  2  3  1  0  0  0
M  END
> <minimizedAffinity>
-2.70456

$$$$
../data/sim100/48.pdb


  3  2  0  0  0  0  0  0  0  0999 V2000
   64.3661   43.8011   42.7403 C   0  0  0  0  0  0  0  0  0  0  0  0
   64.1006   44.8340   41.9680 C   0  0  0  0  0  0  0  0  0  0  0  0
   62.7584   45.4273   41.9560 C   0  0  0  0  0  0  0  0  0  0  0  0
  1  2  2  0  0  0
  2  3  1  0  0  0
M  END
> <minimizedAffinity>
-2.68922

$$$$
../data/sim100/49.pdb


  4  3  0  0  0  0  0  0  0  0999 V2000
   67.7111   46.4038   51.2792 Cl  0  0  0  0  0  0  0  0  0  0  0  0
   68.9641   46.6174   52.5235 C   0  0  0  0  0  0  0  0  0  0  0  0
   68.0899   46.5826   54.2489 Br  0  0  0  0  0  0  0  0  0  0  0  0
   69.8536   48.3278   52.3384 Br  0  0  0  0  0  0  0  0  0  0  0  0
  1  2  1  0  0  0
  2  3  1  0  0  0
  2  4  1  0  0  0
M  END
> <minimizedAffinity>
-2.59312

$$$$
../data/sim100/50.pdb


  4  3  0  0  0  0  0  0  0  0999 V2000
   67.6690   46.3128   51.2472 Cl  0  0  0  0  0  0  0  0  0  0  0  0
   68.7627   46.5309   52.6137 C   0  0  0  0  0  0  0  0  0  0  0  0
   67.8176   46.6820   54.0955 Cl  0  0  0  0  0  0  0  0  0  0  0  0
   69.8085   48.1267   52.3823 Br  0  0  0  0  0  0  0  0  0  0  0  0
  1  2  1  0  0  0
  2  3  1  0  0  0
  2  4  1  0  0  0
M  END
> <minimizedAffinity>
-2.51628

$$$$
../data/sim100/51.pdb


  3  2  0  0  0  0  0  0  0  0999 V2000
   62.2393   45.3437   44.5681 C   0  0  0  0  0  0  0  0  0  0  0  0
   63.0120   44.3491   44.9207 C   0  0  0  0  0  0  0  0  0  0  0  0
   64.1543   44.5433   45.6523 O   0  0  0  0  0  0  0  0  0  0  0  0
  1  2  2  0  0  0
  2  3  1  0  0  0
M  END
> <minimizedAffinity>
-2.61788

$$$$
../data/sim100/52.pdb


  8  8  0  0  0  0  0  0  0  0999 V2000
   67.8825   45.5637   54.9585 O   0  0  0  0  0  0  0  0  0  0  0  0
   68.4136   46.3470   54.1308 C   0  0  0  0  0  0  0  0  0  0  0  0
   69.0971   47.5508   54.5901 C   0  0  0  0  0  0  0  0  0  0  0  0
   69.6561   48.3749   53.7031 C   0  0  0  0  0  0  0  0  0  0  0  0
   69.6140   48.1211   52.2678 C   0  0  0  0  0  0  0  0  0  0  0  0
   70.1542   48.9204   51.4410 O   0  0  0  0  0  0  0  0  0  0  0  0
   68.9279   46.9135   51.8221 C   0  0  0  0  0  0  0  0  0  0  0  0
   68.3729   46.0956   52.6954 C   0  0  0  0  0  0  0  0  0  0  0  0
  1  2  2  0  0  0
  2  3  1  0  0  0
  2  8  1  0  0  0
  3  4  2  0  0  0
  4  5  1  0  0  0
  5  6  2  0  0  0
  5  7  1  0  0  0
  7  8  2  0  0  0
M  END
> <minimizedAffinity>
-4.92118

$$$$
../data/sim100/53.pdb


  8  8  0  0  0  0  0  0  0  0999 V2000
   67.8537   45.2694   54.9256 O   0  0  0  0  0  0  0  0  0  0  0  0
   68.4082   46.1859   54.0456 C   0  0  0  0  0  0  0  0  0  0  0  0
   69.0184   47.3335   54.5110 C   0  0  0  0  0  0  0  0  0  0  0  0
   69.5732   48.2509   53.6432 C   0  0  0  0  0  0  0  0  0  0  0  0
   69.5455   48.0686   52.2763 C   0  0  0  0  0  0  0  0  0  0  0  0
   70.1035   48.9922   51.3964 O   0  0  0  0  0  0  0  0  0  0  0  0
   68.9306   46.9141   51.8165 C   0  0  0  0  0  0  0  0  0  0  0  0
   68.3761   45.9970   52.6801 C   0  0  0  0  0  0  0  0  0  0  0  0
  1  2  1  0  0  0
  2  3  2  0  0  0
  2  8  1  0  0  0
  3  4  1  0  0  0
  4  5  2  0  0  0
  5  6  1  0  0  0
  5  7  1  0  0  0
  7  8  2  0  0  0
M  END
> <minimizedAffinity>
-4.94667

$$$$
../data/sim100/55.pdb


  6  5  0  0  0  0  0  0  0  0999 V2000
   68.0943   46.8501   54.4627 C   0  0  0  0  0  0  0  0  0  0  0  0
   68.6970   46.3309   53.1565 C   0  0  0  0  0  0  0  0  0  0  0  0
   67.5935   45.5718   52.4559 C   0  0  0  0  0  0  0  0  0  0  0  0
   69.1143   47.5471   52.3634 C   0  0  0  0  0  0  0  0  0  0  0  0
   69.8971   48.5389   53.1674 C   0  0  0  0  0  0  0  0  0  0  0  0
   69.8585   47.1115   51.2764 O   0  0  0  0  0  0  0  0  0  0  0  0
  1  2  1  0  0  0
  2  3  1  0  0  0
  2  4  1  0  0  0
  4  5  1  0  0  0
  4  6  1  0  0  0
M  END
> <minimizedAffinity>
-3.78189

$$$$
../data/sim100/56.pdb


  6  5  0  0  0  0  0  0  0  0999 V2000
   69.8815   49.3739   51.4255 O   0  0  0  0  0  0  0  0  0  0  0  0
   70.1937   48.3228   52.2886 C   0  0  0  0  0  0  0  0  0  0  0  0
   69.1958   46.9379   51.7889 Cl  0  0  0  0  0  0  0  0  0  0  0  0
   69.8524   48.7818   53.6839 C   0  0  0  0  0  0  0  0  0  0  0  0
   68.6876   47.6680   54.4378 Cl  0  0  0  0  0  0  0  0  0  0  0  0
   69.0357   50.3588   53.5235 Cl  0  0  0  0  0  0  0  0  0  0  0  0
  2  1  1  0  0  0
  2  3  1  0  0  0
  2  4  1  0  0  0
  4  5  1  0  0  0
  4  6  1  0  0  0
M  END
> <minimizedAffinity>
-3.47027

$$$$
../data/sim100/57.pdb


  9  9  0  0  0  0  0  0  0  0999 V2000
   70.3264   48.6993   51.4289 O   0  0  0  0  0  0  0  0  0  0  0  0
   69.5244   47.9496   52.2842 C   0  0  0  0  0  0  0  0  0  0  0  0
   68.7369   46.9191   51.7922 C   0  0  0  0  0  0  0  0  0  0  0  0
   67.9423   46.1753   52.6423 C   0  0  0  0  0  0  0  0  0  0  0  0
   67.1359   45.1328   52.1954 O   0  0  0  0  0  0  0  0  0  0  0  0
   67.9600   46.4911   53.9845 C   0  0  0  0  0  0  0  0  0  0  0  0
   68.7505   47.5205   54.4539 C   0  0  0  0  0  0  0  0  0  0  0  0
   68.7372   47.8046   55.8171 O   0  0  0  0  0  0  0  0  0  0  0  0
   69.5530   48.2779   53.6245 C   0  0  0  0  0  0  0  0  0  0  0  0
  1  2  1  0  0  0
  2  3  2  0  0  0
  2  9  1  0  0  0
  3  4  1  0  0  0
  4  5  1  0  0  0
  4  6  2  0  0  0
  6  7  1  0  0  0
  7  8  1  0  0  0
  7  9  2  0  0  0
M  END
> <minimizedAffinity>
-5.23376

$$$$
../data/sim100/58.pdb


 10 10  0  0  0  0  0  0  0  0999 V2000
   70.8417   49.6763   53.8404 N   0  0  0  0  0  0  0  0  0  0  0  0
   69.9646   48.5792   53.6221 C   0  0  0  0  0  0  0  0  0  0  0  0
   69.4147   47.8487   54.6553 C   0  0  0  0  0  0  0  0  0  0  0  0
   68.5602   46.7802   54.4076 C   0  0  0  0  0  0  0  0  0  0  0  0
   68.0066   46.0453   55.4781 N   0  0  0  0  0  0  0  0  0  0  0  0
   68.2250   46.4045   53.1223 C   0  0  0  0  0  0  0  0  0  0  0  0
   67.3450   45.3033   52.8800 N   0  0  0  0  0  0  0  0  0  0  0  0
   68.7757   47.1343   52.0890 C   0  0  0  0  0  0  0  0  0  0  0  0
   69.6261   48.1976   52.3393 C   0  0  0  0  0  0  0  0  0  0  0  0
   70.1950   48.9525   51.2717 N   0  0  0  0  0  0  0  0  0  0  0  0
  1  2  1  0  0  0
  2  3  2  0  0  0
  2  9  1  0  0  0
  3  4  1  0  0  0
  4  5  1  0  0  0
  4  6  2  0  0  0
  6  7  1  0  0  0
  6  8  1  0  0  0
  8  9  2  0  0  0
  9 10  1  0  0  0
M  END
> <minimizedAffinity>
-5.57836

$$$$
../data/sim100/59.pdb


  8  8  0  0  0  0  0  0  0  0999 V2000
   70.8787   49.4794   53.6026 N   0  0  0  0  0  0  0  0  0  0  0  0
   69.9619   48.4303   53.3179 C   0  0  0  0  0  0  0  0  0  0  0  0
   69.9101   47.8681   52.0564 C   0  0  0  0  0  0  0  0  0  0  0  0
   69.0193   46.8521   51.7852 C   0  0  0  0  0  0  0  0  0  0  0  0
   68.1784   46.3964   52.7748 C   0  0  0  0  0  0  0  0  0  0  0  0
   67.2575   45.3556   52.5180 N   0  0  0  0  0  0  0  0  0  0  0  0
   68.2359   46.9617   54.0284 C   0  0  0  0  0  0  0  0  0  0  0  0
   69.1324   47.9914   54.3177 C   0  0  0  0  0  0  0  0  0  0  0  0
  1  2  1  0  0  0
  2  3  2  0  0  0
  2  8  1  0  0  0
  3  4  1  0  0  0
  4  5  2  0  0  0
  5  6  1  0  0  0
  5  7  1  0  0  0
  7  8  2  0  0  0
M  END
> <minimizedAffinity>
-4.93278

$$$$
../data/sim100/60.pdb


  9  9  0  0  0  0  0  0  0  0999 V2000
   70.1286   48.7151   51.8513 N   0  0  0  0  0  0  0  0  0  0  0  0
   69.3104   47.7522   52.4894 C   0  0  0  0  0  0  0  0  0  0  0  0
   68.5642   46.8829   51.7203 C   0  0  0  0  0  0  0  0  0  0  0  0
   67.7582   45.9350   52.3196 C   0  0  0  0  0  0  0  0  0  0  0  0
   66.9857   45.0340   51.5338 N   0  0  0  0  0  0  0  0  0  0  0  0
   67.7007   45.8598   53.7005 C   0  0  0  0  0  0  0  0  0  0  0  0
   68.4423   46.7249   54.4783 C   0  0  0  0  0  0  0  0  0  0  0  0
   68.3523   46.6129   55.8907 N   0  0  0  0  0  0  0  0  0  0  0  0
   69.2477   47.6721   53.8792 C   0  0  0  0  0  0  0  0  0  0  0  0
  1  2  1  0  0  0
  2  3  2  0  0  0
  2  9  1  0  0  0
  3  4  1  0  0  0
  4  5  1  0  0  0
  4  6  2  0  0  0
  6  7  1  0  0  0
  7  8  1  0  0  0
  7  9  2  0  0  0
M  END
> <minimizedAffinity>
-5.38735

$$$$
../data/sim100/61.pdb


 10 10  0  0  0  0  0  0  0  0999 V2000
   70.5745   48.7049   53.9280 O   0  0  0  0  0  0  0  0  0  0  0  0
   69.2690   48.8007   53.4866 C   0  0  0  0  0  0  0  0  0  0  0  0
   68.2720   48.1764   54.4064 C   0  0  0  0  0  0  0  0  0  0  0  0
   68.2267   46.6895   54.3594 C   0  0  0  0  0  0  0  0  0  0  0  0
   69.1276   46.1010   55.2608 O   0  0  0  0  0  0  0  0  0  0  0  0
   68.4046   46.0961   53.0028 C   0  0  0  0  0  0  0  0  0  0  0  0
   67.2194   46.0920   52.2792 O   0  0  0  0  0  0  0  0  0  0  0  0
   69.4764   46.7564   52.1812 C   0  0  0  0  0  0  0  0  0  0  0  0
   69.2127   48.2362   52.0871 C   0  0  0  0  0  0  0  0  0  0  0  0
   70.2739   48.7981   51.3625 O   0  0  0  0  0  0  0  0  0  0  0  0
  2  1  1  0  0  0
  2  3  1  0  0  0
  2  9  1  0  0  0
  3  4  1  0  0  0
  4  5  1  0  0  0
  4  6  1  0  0  0
  6  7  1  0  0  0
  6  8  1  0  0  0
  8  9  1  0  0  0
  9 10  1  0  0  0
M  END
> <minimizedAffinity>
-4.57355

$$$$
../data/sim100/62.pdb


  6  5  0  0  0  0  0  0  0  0999 V2000
   68.7200   48.6596   53.2886 O   0  0  0  0  0  0  0  0  0  0  0  0
   69.8974   48.7585   52.3601 P   0  0  0  0  0  0  0  0  0  0  0  0
   69.5717   49.9585   51.2234 O   0  0  0  0  0  0  0  0  0  0  0  0
   71.3315   49.1194   53.1469 O   0  0  0  0  0  0  0  0  0  0  0  0
   69.9945   47.2848   51.5087 O   0  0  0  0  0  0  0  0  0  0  0  0
   68.7339   46.9280   51.2781 O   0  0  0  0  0  0  0  0  0  0  0  0
  1  2  2  0  0  0
  2  3  1  0  0  0
  2  4  1  0  0  0
  2  5  1  0  0  0
  5  6  1  0  0  0
M  END
> <minimizedAffinity>
-3.97327

$$$$
../data/sim100/63.pdb


 10  9  0  0  0  0  0  0  0  0999 V2000
   69.2556   48.8166   52.5382 C   0  0  0  0  0  0  0  0  0  0  0  0
   70.0998   49.2809   51.4690 O   0  0  0  0  0  0  0  0  0  0  0  0
   70.0582   48.9857   53.7961 C   0  0  0  0  0  0  0  0  0  0  0  0
   71.3513   49.3815   53.3190 O   0  0  0  0  0  0  0  0  0  0  0  0
   68.5835   50.8086   53.9682 O   0  0  0  0  0  0  0  0  0  0  0  0
   69.6492   50.1563   54.6534 C   0  0  0  0  0  0  0  0  0  0  0  0
   68.9209   47.4187   52.1467 C   0  0  0  0  0  0  0  0  0  0  0  0
   69.9005   46.8278   51.3619 O   0  0  0  0  0  0  0  0  0  0  0  0
   68.3558   46.5303   53.1902 C   0  0  0  0  0  0  0  0  0  0  0  0
   67.2694   45.7845   52.6487 O   0  0  0  0  0  0  0  0  0  0  0  0
  5  6  1  0  0  0
  6  3  1  0  0  0
  3  4  1  0  0  0
  3  1  1  0  0  0
  1  2  1  0  0  0
  1  7  1  0  0  0
  7  8  1  0  0  0
  7  9  1  0  0  0
  9 10  1  0  0  0
M  END
> <minimizedAffinity>
-4.49908

$$$$
../data/sim100/64.pdb


 23 24  0  0  0  0  0  0  0  0999 V2000
   71.9725   49.8493   55.4754 O   0  0  0  0  0  0  0  0  0  0  0  0
   67.5722   46.7306   55.4934 O   0  0  0  0  0  0  0  0  0  0  0  0
   68.4096   47.8234   55.5287 C   0  0  0  0  0  0  0  0  0  0  0  0
   69.2263   47.7674   56.7819 C   0  0  0  0  0  0  0  0  0  0  0  0
   69.5527   46.4099   57.0128 O   0  0  0  0  0  0  0  0  0  0  0  0
   70.4306   48.6157   56.7978 C   0  0  0  0  0  0  0  0  0  0  0  0
   70.4556   49.3264   58.0230 O   0  0  0  0  0  0  0  0  0  0  0  0
   70.6087   49.5805   55.6831 C   0  0  0  0  0  0  0  0  0  0  0  0
   70.0195   49.1966   54.3775 C   0  0  0  0  0  0  0  0  0  0  0  0
   70.9817   49.1918   53.3398 O   0  0  0  0  0  0  0  0  0  0  0  0
   69.3867   47.8259   54.3619 C   0  0  0  0  0  0  0  0  0  0  0  0
   68.6562   47.7287   53.1755 O   0  0  0  0  0  0  0  0  0  0  0  0
   72.2986   51.1703   55.6932 C   0  0  0  0  0  0  0  0  0  0  0  0
   73.0637   51.3863   56.9761 C   0  0  0  0  0  0  0  0  0  0  0  0
   74.3406   50.8685   56.9433 O   0  0  0  0  0  0  0  0  0  0  0  0
   73.0425   52.8743   57.2685 C   0  0  0  0  0  0  0  0  0  0  0  0
   73.8790   53.1847   58.3534 O   0  0  0  0  0  0  0  0  0  0  0  0
   73.3863   53.7131   56.0855 C   0  0  0  0  0  0  0  0  0  0  0  0
   74.3645   54.6792   56.4034 O   0  0  0  0  0  0  0  0  0  0  0  0
   73.8972   52.9448   54.9108 C   0  0  0  0  0  0  0  0  0  0  0  0
   75.2259   52.5512   55.0540 O   0  0  0  0  0  0  0  0  0  0  0  0
   73.0742   51.7579   54.5424 C   0  0  0  0  0  0  0  0  0  0  0  0
   73.9175   50.7385   54.0453 O   0  0  0  0  0  0  0  0  0  0  0  0
  3  2  1  0  0  0
  3  4  1  0  0  0
  3 11  1  0  0  0
  4  5  1  0  0  0
  4  6  1  0  0  0
  6  7  1  0  0  0
  6  8  1  0  0  0
  8  1  1  0  0  0
  8  9  1  0  0  0
 13  1  1  0  0  0
 13 14  1  0  0  0
 13 22  1  0  0  0
 14 15  1  0  0  0
 14 16  1  0  0  0
 16 17  1  0  0  0
 16 18  1  0  0  0
 18 19  1  0  0  0
 18 20  1  0  0  0
 20 21  1  0  0  0
 20 22  1  0  0  0
 22 23  1  0  0  0
  9 10  1  0  0  0
  9 11  1  0  0  0
 11 12  1  0  0  0
M  END
> <minimizedAffinity>
-8.75759

$$$$
../data/sim100/65.pdb


  5  4  0  0  0  0  0  0  0  0999 V2000
   64.4282   43.8703   42.8359 C   0  0  0  0  0  0  0  0  0  0  0  0
   63.1328   44.4810   43.2719 C   0  0  0  0  0  0  0  0  0  0  0  0
   62.8591   45.7502   42.6330 N   0  0  0  0  0  0  0  0  0  0  0  0
   62.9930   44.5634   44.7712 C   0  0  0  0  0  0  0  0  0  0  0  0
   64.1548   44.2934   45.4477 O   0  0  0  0  0  0  0  0  0  0  0  0
  2  1  1  0  0  0
  2  3  1  0  0  0
  2  4  1  0  0  0
  4  5  1  0  0  0
M  CHG 1   3   1
M  END
> <minimizedAffinity>
-3.73466

$$$$
../data/sim100/66.pdb


  5  4  0  0  0  0  0  0  0  0999 V2000
   62.1847   45.3596   44.6154 C   0  0  0  0  0  0  0  0  0  0  0  0
   63.2844   44.3205   44.6669 C   0  0  0  0  0  0  0  0  0  0  0  0
   64.1947   44.5259   45.6645 O   0  0  0  0  0  0  0  0  0  0  0  0
   63.9175   44.3015   43.2749 C   0  0  0  0  0  0  0  0  0  0  0  0
   62.9023   45.3897   42.2726 Cl  0  0  0  0  0  0  0  0  0  0  0  0
  2  1  1  0  0  0
  2  3  1  0  0  0
  2  4  1  0  0  0
  4  5  1  0  0  0
M  END
> <minimizedAffinity>
-3.86338

$$$$
../data/sim100/67.pdb


  5  4  0  0  0  0  0  0  0  0999 V2000
   64.3677   44.2482   42.6293 C   0  0  0  0  0  0  0  0  0  0  0  0
   62.9858   44.7473   42.9494 C   0  0  0  0  0  0  0  0  0  0  0  0
   62.8538   46.0376   42.4142 O   0  0  0  0  0  0  0  0  0  0  0  0
   62.8534   44.8791   44.4519 C   0  0  0  0  0  0  0  0  0  0  0  0
   63.9374   44.2048   45.1461 N   0  0  0  0  0  0  0  0  0  0  0  0
  2  1  1  0  0  0
  2  3  1  0  0  0
  2  4  1  0  0  0
  4  5  1  0  0  0
M  CHG 1   5   1
M  END
> <minimizedAffinity>
-3.60372

$$$$
../data/sim100/68.pdb


 12 11  0  0  0  0  0  0  0  0999 V2000
   68.5287   47.3124   52.3189 C   0  0  0  0  0  0  0  0  0  0  0  0
   68.3213   46.8953   51.0087 O   0  0  0  0  0  0  0  0  0  0  0  0
   68.4045   46.0733   53.1960 C   0  0  0  0  0  0  0  0  0  0  0  0
   67.3187   45.3042   52.8865 O   0  0  0  0  0  0  0  0  0  0  0  0
   67.6380   46.8229   55.3814 O   0  0  0  0  0  0  0  0  0  0  0  0
   68.6597   46.3025   54.6430 C   0  0  0  0  0  0  0  0  0  0  0  0
   69.7992   48.0421   52.5205 C   0  0  0  0  0  0  0  0  0  0  0  0
   70.4631   48.3163   51.3094 O   0  0  0  0  0  0  0  0  0  0  0  0
   69.5442   49.3980   53.1463 C   0  0  0  0  0  0  0  0  0  0  0  0
   69.8442   50.3947   52.1503 O   0  0  0  0  0  0  0  0  0  0  0  0
   70.4429   49.7050   54.3077 C   0  0  0  0  0  0  0  0  0  0  0  0
   71.7136   50.0504   53.9481 O   0  0  0  0  0  0  0  0  0  0  0  0
  5  6  1  0  0  0
  6  3  1  0  0  0
  3  4  1  0  0  0
  3  1  1  0  0  0
  1  2  1  0  0  0
  1  7  1  0  0  0
  7  8  1  0  0  0
  7  9  1  0  0  0
  9 10  1  0  0  0
  9 11  1  0  0  0
 11 12  1  0  0  0
M  END
> <minimizedAffinity>
-5.00161

$$$$
../data/sim100/69.pdb


  5  4  0  0  0  0  0  0  0  0999 V2000
   62.7190   45.4919   41.8655 C   0  0  0  0  0  0  0  0  0  0  0  0
   63.1891   44.8596   42.9312 C   0  0  0  0  0  0  0  0  0  0  0  0
   64.3095   43.9138   42.7412 C   0  0  0  0  0  0  0  0  0  0  0  0
   62.5964   45.1030   44.2714 C   0  0  0  0  0  0  0  0  0  0  0  0
   63.7317   44.7422   45.5878 Cl  0  0  0  0  0  0  0  0  0  0  0  0
  1  2  2  0  0  0
  2  3  1  0  0  0
  2  4  1  0  0  0
  4  5  1  0  0  0
M  END
> <minimizedAffinity>
-3.97814

$$$$
../data/sim100/70.pdb


 10 10  0  0  0  0  0  0  0  0999 V2000
   66.9293   44.9305   51.4008 O   0  0  0  0  0  0  0  0  0  0  0  0
   67.1611   45.3897   52.6674 N   0  0  0  0  0  0  0  0  0  0  0  0
   68.0577   46.3272   52.8507 C   0  0  0  0  0  0  0  0  0  0  0  0
   68.7941   46.8684   51.7079 C   0  0  0  0  0  0  0  0  0  0  0  0
   69.6953   47.8171   51.9226 C   0  0  0  0  0  0  0  0  0  0  0  0
   69.9792   48.3397   53.2540 C   0  0  0  0  0  0  0  0  0  0  0  0
   70.8626   49.2640   53.4397 N   0  0  0  0  0  0  0  0  0  0  0  0
   71.1744   49.7921   54.6442 O   0  0  0  0  0  0  0  0  0  0  0  0
   69.2353   47.7875   54.3771 C   0  0  0  0  0  0  0  0  0  0  0  0
   68.3236   46.8336   54.1941 C   0  0  0  0  0  0  0  0  0  0  0  0
  1  2  1  0  0  0
  2  3  2  0  0  0
  3  4  1  0  0  0
  3 10  1  0  0  0
  4  5  2  0  0  0
  5  6  1  0  0  0
  6  7  2  0  0  0
  6  9  1  0  0  0
  7  8  1  0  0  0
  9 10  2  0  0  0
M  END
> <minimizedAffinity>
-5.95399

$$$$
../data/sim100/71.pdb


 14 14  0  0  0  0  0  0  0  0999 V2000
   73.0019   52.5474   57.3035 C   0  0  0  0  0  0  0  0  0  0  0  0
   73.3127   51.1021   57.4251 C   0  0  0  0  0  0  0  0  0  0  0  0
   74.5477   50.9056   58.0843 O   0  0  0  0  0  0  0  0  0  0  0  0
   73.3680   50.3520   56.1366 C   0  0  0  0  0  0  0  0  0  0  0  0
   72.0771   50.0290   55.6885 O   0  0  0  0  0  0  0  0  0  0  0  0
   74.1915   51.0196   55.0788 C   0  0  0  0  0  0  0  0  0  0  0  0
   73.8911   50.3709   53.8603 O   0  0  0  0  0  0  0  0  0  0  0  0
   74.0607   52.4849   55.0103 C   0  0  0  0  0  0  0  0  0  0  0  0
   75.3214   53.1069   55.1559 O   0  0  0  0  0  0  0  0  0  0  0  0
   73.0851   53.1204   55.9307 C   0  0  0  0  0  0  0  0  0  0  0  0
   73.7002   54.6296   58.0000 C   0  0  0  0  0  0  0  0  0  0  0  0
   73.8331   53.2531   58.1731 O   0  0  0  0  0  0  0  0  0  0  0  0
   71.8178   53.1664   55.3466 O   0  0  0  0  0  0  0  0  0  0  0  0
   70.8200   53.5088   56.2344 C   0  0  0  0  0  0  0  0  0  0  0  0
 11 12  1  0  0  0
  1 12  1  0  0  0
  1  2  1  0  0  0
  1 10  1  0  0  0
  2  3  1  0  0  0
  2  4  1  0  0  0
  4  5  1  0  0  0
  4  6  1  0  0  0
  6  7  1  0  0  0
  6  8  1  0  0  0
  8  9  1  0  0  0
  8 10  1  0  0  0
 10 13  1  0  0  0
 13 14  1  0  0  0
M  END
> <minimizedAffinity>
-5.30629

$$$$
../data/sim100/72.pdb


 13 13  0  0  0  0  0  0  0  0999 V2000
   73.5024   51.0016   56.1154 C   0  0  0  0  0  0  0  0  0  0  0  0
   73.3492   51.3889   54.6710 C   0  0  0  0  0  0  0  0  0  0  0  0
   73.9180   50.4928   53.7921 O   0  0  0  0  0  0  0  0  0  0  0  0
   73.9565   52.7875   54.5450 C   0  0  0  0  0  0  0  0  0  0  0  0
   75.2273   52.7014   55.1265 O   0  0  0  0  0  0  0  0  0  0  0  0
   73.0435   53.7005   55.3517 C   0  0  0  0  0  0  0  0  0  0  0  0
   73.4017   55.0302   55.2230 O   0  0  0  0  0  0  0  0  0  0  0  0
   73.0628   53.2928   56.7890 C   0  0  0  0  0  0  0  0  0  0  0  0
   72.2906   54.1217   57.5664 O   0  0  0  0  0  0  0  0  0  0  0  0
   72.5336   51.8600   56.9199 C   0  0  0  0  0  0  0  0  0  0  0  0
   71.2452   51.8085   56.4044 O   0  0  0  0  0  0  0  0  0  0  0  0
   74.2229   49.2881   57.4078 C   0  0  0  0  0  0  0  0  0  0  0  0
   73.3520   49.6622   56.3587 O   0  0  0  0  0  0  0  0  0  0  0  0
 12 13  1  0  0  0
  1 13  1  0  0  0
  1  2  1  0  0  0
  1 10  1  0  0  0
  2  3  1  0  0  0
  2  4  1  0  0  0
  4  5  1  0  0  0
  4  6  1  0  0  0
  6  7  1  0  0  0
  6  8  1  0  0  0
  8  9  1  0  0  0
  8 10  1  0  0  0
 10 11  1  0  0  0
M  END
> <minimizedAffinity>
-5.35368

$$$$
../data/sim100/73.pdb


 12 12  0  0  0  0  0  0  0  0999 V2000
   71.0213   53.8241   56.0245 C   0  0  0  0  0  0  0  0  0  0  0  0
   72.1653   53.1669   55.9158 C   0  0  0  0  0  0  0  0  0  0  0  0
   72.2770   51.7468   56.3286 C   0  0  0  0  0  0  0  0  0  0  0  0
   72.8335   51.7395   57.6124 O   0  0  0  0  0  0  0  0  0  0  0  0
   73.0307   50.9096   55.3655 C   0  0  0  0  0  0  0  0  0  0  0  0
   72.1210   50.4267   54.4015 O   0  0  0  0  0  0  0  0  0  0  0  0
   74.2023   51.5168   54.7210 C   0  0  0  0  0  0  0  0  0  0  0  0
   75.3483   51.2140   55.4772 O   0  0  0  0  0  0  0  0  0  0  0  0
   74.1297   52.9638   54.4026 C   0  0  0  0  0  0  0  0  0  0  0  0
   73.6185   53.1837   53.1128 O   0  0  0  0  0  0  0  0  0  0  0  0
   73.3926   53.8082   55.3790 C   0  0  0  0  0  0  0  0  0  0  0  0
   74.2431   54.2057   56.4193 O   0  0  0  0  0  0  0  0  0  0  0  0
  1  2  2  0  0  0
  2  3  1  0  0  0
  2 11  1  0  0  0
  3  4  1  0  0  0
  3  5  1  0  0  0
  5  6  1  0  0  0
  5  7  1  0  0  0
  7  8  1  0  0  0
  7  9  1  0  0  0
  9 10  1  0  0  0
  9 11  1  0  0  0
 11 12  1  0  0  0
M  END
> <minimizedAffinity>
-5.37897

$$$$
../data/sim100/74.pdb


 16 16  0  0  0  0  0  0  0  0999 V2000
   69.4210   50.3354   54.9447 C   0  0  0  0  0  0  0  0  0  0  0  0
   68.9054   49.1891   55.5096 C   0  0  0  0  0  0  0  0  0  0  0  0
   68.6956   48.0679   54.7358 C   0  0  0  0  0  0  0  0  0  0  0  0
   68.9878   48.0493   53.3886 C   0  0  0  0  0  0  0  0  0  0  0  0
   69.5061   49.2172   52.8448 C   0  0  0  0  0  0  0  0  0  0  0  0
   69.7877   49.1732   51.5114 O   0  0  0  0  0  0  0  0  0  0  0  0
   69.7337   50.3636   53.5805 C   0  0  0  0  0  0  0  0  0  0  0  0
   70.2495   51.5374   53.0570 O   0  0  0  0  0  0  0  0  0  0  0  0
   69.1355   51.4166   57.1554 C   0  0  0  0  0  0  0  0  0  0  0  0
   69.6668   51.5716   55.7309 C   0  0  0  0  0  0  0  0  0  0  0  0
   71.1431   51.8826   55.8538 C   0  0  0  0  0  0  0  0  0  0  0  0
   68.9806   52.7705   55.1308 C   0  0  0  0  0  0  0  0  0  0  0  0
   68.7432   46.8344   52.6278 C   0  0  0  0  0  0  0  0  0  0  0  0
   70.0463   46.4716   51.9059 C   0  0  0  0  0  0  0  0  0  0  0  0
   68.3582   45.7089   53.5581 C   0  0  0  0  0  0  0  0  0  0  0  0
   67.6797   46.9470   51.5761 C   0  0  0  0  0  0  0  0  0  0  0  0
  9 10  1  0  0  0
 10 11  1  0  0  0
 10 12  1  0  0  0
 10  1  1  0  0  0
  1  2  2  0  0  0
  1  7  1  0  0  0
  2  3  1  0  0  0
  3  4  2  0  0  0
  4 13  1  0  0  0
  4  5  1  0  0  0
 13 14  1  0  0  0
 13 15  1  0  0  0
 13 16  1  0  0  0
  5  6  1  0  0  0
  5  7  2  0  0  0
  7  8  1  0  0  0
M  END
> <minimizedAffinity>
-5.66759

$$$$
../data/sim100/75.pdb


 22 23  0  0  0  0  0  0  0  0999 V2000
   68.8261   47.2679   53.8569 C   0  0  0  0  0  0  0  0  0  0  0  0
   69.4186   48.1525   52.9836 C   0  0  0  0  0  0  0  0  0  0  0  0
   70.1018   49.2285   53.5066 C   0  0  0  0  0  0  0  0  0  0  0  0
   70.2195   49.4608   54.8577 C   0  0  0  0  0  0  0  0  0  0  0  0
   69.6192   48.5631   55.7162 C   0  0  0  0  0  0  0  0  0  0  0  0
   68.9174   47.4601   55.2163 C   0  0  0  0  0  0  0  0  0  0  0  0
   70.9659   50.6328   55.3618 C   0  0  0  0  0  0  0  0  0  0  0  0
   72.1585   51.0212   54.8413 C   0  0  0  0  0  0  0  0  0  0  0  0
   72.8174   52.1219   55.3452 C   0  0  0  0  0  0  0  0  0  0  0  0
   72.3133   52.8729   56.3856 C   0  0  0  0  0  0  0  0  0  0  0  0
   71.0972   52.4646   56.9074 C   0  0  0  0  0  0  0  0  0  0  0  0
   70.4303   51.3609   56.4050 C   0  0  0  0  0  0  0  0  0  0  0  0
   73.0002   54.0244   56.9166 C   0  0  0  0  0  0  0  0  0  0  0  0
   72.7773   54.3646   58.1167 O   0  0  0  0  0  0  0  0  0  0  0  0
   73.9435   54.7858   56.0741 C   0  0  0  0  0  0  0  0  0  0  0  0
   73.2798   55.4347   55.0316 O   0  0  0  0  0  0  0  0  0  0  0  0
   74.5569   55.8104   56.8293 O   0  0  0  0  0  0  0  0  0  0  0  0
   68.0207   45.0603   54.0445 O   0  0  0  0  0  0  0  0  0  0  0  0
   68.0940   46.1185   53.3476 C   0  0  0  0  0  0  0  0  0  0  0  0
   67.4150   46.1120   52.0376 C   0  0  0  0  0  0  0  0  0  0  0  0
   68.2526   46.5841   51.0426 O   0  0  0  0  0  0  0  0  0  0  0  0
   66.9552   44.8072   51.7420 O   0  0  0  0  0  0  0  0  0  0  0  0
 18 19  2  0  0  0
 19  1  1  0  0  0
 19 20  1  0  0  0
  1  2  2  0  0  0
  1  6  1  0  0  0
  2  3  1  0  0  0
  3  4  2  0  0  0
  4  7  1  0  0  0
  4  5  1  0  0  0
  7  8  2  0  0  0
  7 12  1  0  0  0
  8  9  1  0  0  0
  9 10  2  0  0  0
 10 13  1  0  0  0
 10 11  1  0  0  0
 13 14  2  0  0  0
 13 15  1  0  0  0
 15 16  1  0  0  0
 15 17  1  0  0  0
 11 12  2  0  0  0
  5  6  2  0  0  0
 20 21  1  0  0  0
 20 22  1  0  0  0
M  END
> <minimizedAffinity>
-7.69615

$$$$
../data/sim100/76.pdb


 19 20  0  0  0  0  0  0  0  0999 V2000
   71.4943   50.2327   54.9126 O   0  0  0  0  0  0  0  0  0  0  0  0
   73.4239   55.1453   54.9209 O   0  0  0  0  0  0  0  0  0  0  0  0
   73.4240   53.9132   55.5750 C   0  0  0  0  0  0  0  0  0  0  0  0
   72.0258   53.6102   55.9438 C   0  0  0  0  0  0  0  0  0  0  0  0
   71.3728   52.5150   55.6244 C   0  0  0  0  0  0  0  0  0  0  0  0
   72.0553   51.4778   54.8318 C   0  0  0  0  0  0  0  0  0  0  0  0
   73.5322   51.5275   55.1126 C   0  0  0  0  0  0  0  0  0  0  0  0
   73.8586   51.4384   56.4396 O   0  0  0  0  0  0  0  0  0  0  0  0
   74.0063   52.8903   54.6340 C   0  0  0  0  0  0  0  0  0  0  0  0
   73.5580   53.0428   53.3328 O   0  0  0  0  0  0  0  0  0  0  0  0
   70.1227   50.1902   54.8042 C   0  0  0  0  0  0  0  0  0  0  0  0
   69.5878   49.5374   56.0589 C   0  0  0  0  0  0  0  0  0  0  0  0
   68.3058   49.9934   56.3609 O   0  0  0  0  0  0  0  0  0  0  0  0
   69.6582   48.0556   56.0165 C   0  0  0  0  0  0  0  0  0  0  0  0
   69.2854   47.4375   54.9186 C   0  0  0  0  0  0  0  0  0  0  0  0
   68.8153   48.2952   53.7866 C   0  0  0  0  0  0  0  0  0  0  0  0
   68.8725   47.4895   52.6291 O   0  0  0  0  0  0  0  0  0  0  0  0
   69.7746   49.4370   53.5501 C   0  0  0  0  0  0  0  0  0  0  0  0
   70.9285   48.9355   52.9121 O   0  0  0  0  0  0  0  0  0  0  0  0
  3  2  1  0  0  0
  3  4  1  0  0  0
  3  9  1  0  0  0
  4  5  2  0  0  0
  5  6  1  0  0  0
  6  1  1  0  0  0
  6  7  1  0  0  0
 11  1  1  0  0  0
 11 12  1  0  0  0
 11 18  1  0  0  0
 12 13  1  0  0  0
 12 14  1  0  0  0
 14 15  2  0  0  0
 15 16  1  0  0  0
 16 17  1  0  0  0
 16 18  1  0  0  0
 18 19  1  0  0  0
  7  8  1  0  0  0
  7  9  1  0  0  0
  9 10  1  0  0  0
M  END
> <minimizedAffinity>
-7.24725

$$$$
../data/sim100/77.pdb


 12 12  0  0  0  0  0  0  0  0999 V2000
   71.9654   51.6109   58.4004 Br  0  0  0  0  0  0  0  0  0  0  0  0
   71.0525   50.3675   57.2848 C   0  0  0  0  0  0  0  0  0  0  0  0
   70.5281   50.7535   56.0691 C   0  0  0  0  0  0  0  0  0  0  0  0
   70.7331   52.5783   55.5098 Br  0  0  0  0  0  0  0  0  0  0  0  0
   69.8640   49.8705   55.2460 C   0  0  0  0  0  0  0  0  0  0  0  0
   69.1433   50.4089   53.5702 Br  0  0  0  0  0  0  0  0  0  0  0  0
   69.7000   48.5526   55.6171 C   0  0  0  0  0  0  0  0  0  0  0  0
   68.7729   47.3131   54.4726 Br  0  0  0  0  0  0  0  0  0  0  0  0
   70.2172   48.1484   56.8301 C   0  0  0  0  0  0  0  0  0  0  0  0
   70.0132   46.3207   57.3908 Br  0  0  0  0  0  0  0  0  0  0  0  0
   70.8811   49.0427   57.6467 C   0  0  0  0  0  0  0  0  0  0  0  0
   71.6011   48.5002   59.3233 Br  0  0  0  0  0  0  0  0  0  0  0  0
  1  2  1  0  0  0
  2  3  2  0  0  0
  2 11  1  0  0  0
  3  4  1  0  0  0
  3  5  1  0  0  0
  5  6  1  0  0  0
  5  7  2  0  0  0
  7  8  1  0  0  0
  7  9  1  0  0  0
  9 10  1  0  0  0
  9 11  2  0  0  0
 11 12  1  0  0  0
M  END
> <minimizedAffinity>
-4.23779

$$$$
../data/sim100/78.pdb


 12 12  0  0  0  0  0  0  0  0999 V2000
   71.0775   51.2917   58.0223 Cl  0  0  0  0  0  0  0  0  0  0  0  0
   69.3918   51.7484   57.6744 C   0  0  0  0  0  0  0  0  0  0  0  0
   69.3658   52.2973   56.2546 C   0  0  0  0  0  0  0  0  0  0  0  0
   70.3933   53.7022   56.1061 Cl  0  0  0  0  0  0  0  0  0  0  0  0
   69.8691   51.1554   55.3619 C   0  0  0  0  0  0  0  0  0  0  0  0
   70.1143   51.6642   53.7039 Cl  0  0  0  0  0  0  0  0  0  0  0  0
   68.7920   50.0799   55.4496 C   0  0  0  0  0  0  0  0  0  0  0  0
   68.9228   48.8765   54.1867 Cl  0  0  0  0  0  0  0  0  0  0  0  0
   68.9715   49.4705   56.8479 C   0  0  0  0  0  0  0  0  0  0  0  0
   68.0003   48.0163   56.9173 Cl  0  0  0  0  0  0  0  0  0  0  0  0
   68.5065   50.5456   57.8176 C   0  0  0  0  0  0  0  0  0  0  0  0
   66.8346   51.0023   57.4229 Cl  0  0  0  0  0  0  0  0  0  0  0  0
  2  1  1  0  0  0
  2  3  1  0  0  0
  2 11  1  0  0  0
  3  4  1  0  0  0
  3  5  1  0  0  0
  5  6  1  0  0  0
  5  7  1  0  0  0
  7  8  1  0  0  0
  7  9  1  0  0  0
  9 10  1  0  0  0
  9 11  1  0  0  0
 11 12  1  0  0  0
M  END
> <minimizedAffinity>
-4.75998

$$$$
../data/sim100/79.pdb


  6  5  0  0  0  0  0  0  0  0999 V2000
   68.1223   46.5608   51.5321 Cl  0  0  0  0  0  0  0  0  0  0  0  0
   68.5506   46.9294   53.1902 C   0  0  0  0  0  0  0  0  0  0  0  0
   68.1044   45.8507   54.4933 Cl  0  0  0  0  0  0  0  0  0  0  0  0
   69.2202   48.0368   53.4644 C   0  0  0  0  0  0  0  0  0  0  0  0
   69.6355   48.3810   55.1364 Cl  0  0  0  0  0  0  0  0  0  0  0  0
   69.6539   49.0976   52.1478 Cl  0  0  0  0  0  0  0  0  0  0  0  0
  1  2  1  0  0  0
  2  3  1  0  0  0
  2  4  2  0  0  0
  4  5  1  0  0  0
  4  6  1  0  0  0
M  END
> <minimizedAffinity>
-3.11204

$$$$
../data/sim100/80.pdb


  6  5  0  0  0  0  0  0  0  0999 V2000
   64.8726   43.2814   42.8265 F   0  0  0  0  0  0  0  0  0  0  0  0
   63.7460   44.0347   42.8376 C   0  0  0  0  0  0  0  0  0  0  0  0
   63.0299   44.0779   41.6857 F   0  0  0  0  0  0  0  0  0  0  0  0
   63.3421   44.7085   43.9149 C   0  0  0  0  0  0  0  0  0  0  0  0
   62.2053   45.4501   43.8770 F   0  0  0  0  0  0  0  0  0  0  0  0
   64.0703   44.6550   45.0601 F   0  0  0  0  0  0  0  0  0  0  0  0
  1  2  1  0  0  0
  2  3  1  0  0  0
  2  4  2  0  0  0
  4  5  1  0  0  0
  4  6  1  0  0  0
M  END
> <minimizedAffinity>
-4.39893

$$$$
../data/sim100/81.pdb


 12 12  0  0  0  0  0  0  0  0999 V2000
   69.1138   46.8086   52.1219 Cl  0  0  0  0  0  0  0  0  0  0  0  0
   69.0923   47.9730   53.4428 C   0  0  0  0  0  0  0  0  0  0  0  0
   69.3024   49.3041   53.2537 C   0  0  0  0  0  0  0  0  0  0  0  0
   69.6110   49.8999   51.6254 Cl  0  0  0  0  0  0  0  0  0  0  0  0
   69.2883   50.2210   54.2791 C   0  0  0  0  0  0  0  0  0  0  0  0
   69.5577   51.9305   54.0365 Cl  0  0  0  0  0  0  0  0  0  0  0  0
   69.0493   49.7880   55.5716 C   0  0  0  0  0  0  0  0  0  0  0  0
   69.0268   50.9493   56.8973 Cl  0  0  0  0  0  0  0  0  0  0  0  0
   68.8368   48.4481   55.7695 C   0  0  0  0  0  0  0  0  0  0  0  0
   68.5329   47.8832   57.3959 Cl  0  0  0  0  0  0  0  0  0  0  0  0
   68.8541   47.5368   54.7336 C   0  0  0  0  0  0  0  0  0  0  0  0
   68.5832   45.8296   54.9828 Cl  0  0  0  0  0  0  0  0  0  0  0  0
  1  2  1  0  0  0
  2  3  2  0  0  0
  2 11  1  0  0  0
  3  4  1  0  0  0
  3  5  1  0  0  0
  5  6  1  0  0  0
  5  7  2  0  0  0
  7  8  1  0  0  0
  7  9  1  0  0  0
  9 10  1  0  0  0
  9 11  2  0  0  0
 11 12  1  0  0  0
M  END
> <minimizedAffinity>
-4.95053

$$$$
../data/sim100/82.pdb


 12 12  0  0  0  0  0  0  0  0999 V2000
   69.1288   46.9545   52.1654 C   0  0  0  0  0  0  0  0  0  0  0  0
   69.0968   47.9040   53.3160 C   0  0  0  0  0  0  0  0  0  0  0  0
   69.3518   49.2585   53.1364 C   0  0  0  0  0  0  0  0  0  0  0  0
   69.6642   49.8003   51.8060 C   0  0  0  0  0  0  0  0  0  0  0  0
   69.3242   50.1475   54.1987 C   0  0  0  0  0  0  0  0  0  0  0  0
   69.6034   51.5917   53.9640 C   0  0  0  0  0  0  0  0  0  0  0  0
   69.0337   49.6607   55.4565 C   0  0  0  0  0  0  0  0  0  0  0  0
   68.9908   50.5767   56.6378 C   0  0  0  0  0  0  0  0  0  0  0  0
   68.7794   48.3012   55.6271 C   0  0  0  0  0  0  0  0  0  0  0  0
   68.4704   47.8314   57.0156 C   0  0  0  0  0  0  0  0  0  0  0  0
   68.8071   47.4121   54.5649 C   0  0  0  0  0  0  0  0  0  0  0  0
   68.5230   45.9967   54.8625 C   0  0  0  0  0  0  0  0  0  0  0  0
  1  2  1  0  0  0
  2  3  2  0  0  0
  2 11  1  0  0  0
  3  4  1  0  0  0
  3  5  1  0  0  0
  5  6  1  0  0  0
  5  7  2  0  0  0
  7  8  1  0  0  0
  7  9  1  0  0  0
  9 10  1  0  0  0
  9 11  2  0  0  0
 11 12  1  0  0  0
M  END
> <minimizedAffinity>
-5.89056

$$$$
../data/sim100/83.pdb


  4  3  0  0  0  0  0  0  0  0999 V2000
   64.2633   44.0580   42.7172 C   0  0  0  0  0  0  0  0  0  0  0  0
   63.1557   45.1060   42.8040 C   0  0  0  0  0  0  0  0  0  0  0  0
   62.6179   45.0457   44.2070 C   0  0  0  0  0  0  0  0  0  0  0  0
   63.5864   44.5076   45.2052 C   0  0  0  0  0  0  0  0  0  0  0  0
  1  2  1  0  0  0
  2  3  1  0  0  0
  3  4  1  0  0  0
M  END
> <minimizedAffinity>
-3.41243

$$$$
../data/sim100/84.pdb


 12 12  0  0  0  0  0  0  0  0999 V2000
   69.9625   48.6057   52.1995 Br  0  0  0  0  0  0  0  0  0  0  0  0
   70.2706   48.8398   54.0895 C   0  0  0  0  0  0  0  0  0  0  0  0
   70.8538   50.2173   54.3898 C   0  0  0  0  0  0  0  0  0  0  0  0
   69.6226   51.6130   53.8862 Br  0  0  0  0  0  0  0  0  0  0  0  0
   71.1179   50.2180   55.8927 C   0  0  0  0  0  0  0  0  0  0  0  0
   72.2218   51.6471   56.4634 Br  0  0  0  0  0  0  0  0  0  0  0  0
   69.7308   50.2316   56.5477 C   0  0  0  0  0  0  0  0  0  0  0  0
   69.8178   50.6821   58.4029 Br  0  0  0  0  0  0  0  0  0  0  0  0
   69.2119   48.8033   56.3265 C   0  0  0  0  0  0  0  0  0  0  0  0
   67.6755   48.4188   57.3669 Br  0  0  0  0  0  0  0  0  0  0  0  0
   68.9966   48.6672   54.8436 C   0  0  0  0  0  0  0  0  0  0  0  0
   68.1539   46.9994   54.4757 Br  0  0  0  0  0  0  0  0  0  0  0  0
  2  1  1  0  0  0
  2  3  1  0  0  0
  2 11  1  0  0  0
  3  4  1  0  0  0
  3  5  1  0  0  0
  5  6  1  0  0  0
  5  7  1  0  0  0
  7  8  1  0  0  0
  7  9  1  0  0  0
  9 10  1  0  0  0
  9 11  1  0  0  0
 11 12  1  0  0  0
M  END
> <minimizedAffinity>
-4.71727

$$$$
../data/sim100/85.pdb


  6  5  0  0  0  0  0  0  0  0999 V2000
   67.6553   45.7882   52.6198 Cl  0  0  0  0  0  0  0  0  0  0  0  0
   68.1157   46.8490   53.9626 C   0  0  0  0  0  0  0  0  0  0  0  0
   68.6248   45.8043   55.3163 Cl  0  0  0  0  0  0  0  0  0  0  0  0
   69.3263   47.7051   53.5862 C   0  0  0  0  0  0  0  0  0  0  0  0
   68.9239   49.4125   53.7325 Cl  0  0  0  0  0  0  0  0  0  0  0  0
   69.7601   47.2568   51.9098 Cl  0  0  0  0  0  0  0  0  0  0  0  0
  1  2  1  0  0  0
  2  3  1  0  0  0
  2  4  1  0  0  0
  4  5  1  0  0  0
  4  6  1  0  0  0
M  END
> <minimizedAffinity>
-3.13958

$$$$
../data/sim100/86.pdb


  4  3  0  0  0  0  0  0  0  0999 V2000
   64.4508   43.8311   42.5681 C   0  0  0  0  0  0  0  0  0  0  0  0
   63.8833   44.1987   43.6004 C   0  0  0  0  0  0  0  0  0  0  0  0
   63.2518   44.6121   44.7577 C   0  0  0  0  0  0  0  0  0  0  0  0
   62.1277   45.3949   44.6975 C   0  0  0  0  0  0  0  0  0  0  0  0
  1  2  2  0  0  0
  2  3  1  0  0  0
  3  4  2  0  0  0
M  END
> <minimizedAffinity>
-3.39762

$$$$
../data/sim100/87.pdb


  6  5  0  0  0  0  0  0  0  0999 V2000
   63.8979   44.5588   45.5745 C   0  0  0  0  0  0  0  0  0  0  0  0
   63.0148   44.5787   44.3542 C   0  0  0  0  0  0  0  0  0  0  0  0
   61.8648   45.4977   44.6272 C   0  0  0  0  0  0  0  0  0  0  0  0
   63.7617   44.8933   43.0931 C   0  0  0  0  0  0  0  0  0  0  0  0
   62.7900   45.4261   42.0758 C   0  0  0  0  0  0  0  0  0  0  0  0
   64.4590   43.7126   42.4907 C   0  0  0  0  0  0  0  0  0  0  0  0
  1  2  1  0  0  0
  2  3  1  0  0  0
  2  4  1  0  0  0
  4  5  1  0  0  0
  4  6  1  0  0  0
M  END
> <minimizedAffinity>
-4.60956

$$$$
../data/sim100/88.pdb


  4  3  0  0  0  0  0  0  0  0999 V2000
   67.7486   45.6127   52.5700 C   0  0  0  0  0  0  0  0  0  0  0  0
   68.2325   46.2525   54.1857 S   0  0  0  0  0  0  0  0  0  0  0  0
   69.1523   48.1500   53.8867 S   0  0  0  0  0  0  0  0  0  0  0  0
   69.9636   48.1743   52.2750 C   0  0  0  0  0  0  0  0  0  0  0  0
  1  2  1  0  0  0
  2  3  1  0  0  0
  3  4  1  0  0  0
M  END
> <minimizedAffinity>
-1.90255

$$$$
../data/sim100/90.pdb


  6  5  0  0  0  0  0  0  0  0999 V2000
   68.3807   46.8242   53.1870 C   0  0  0  0  0  0  0  0  0  0  0  0
   67.0952   45.6519   51.5213 O   0  0  0  0  0  0  0  0  0  0  0  0
   67.6746   45.5226   52.7951 C   0  0  0  0  0  0  0  0  0  0  0  0
   69.3430   47.1586   52.0725 C   0  0  0  0  0  0  0  0  0  0  0  0
   70.1060   48.4342   52.3533 C   0  0  0  0  0  0  0  0  0  0  0  0
   69.9488   49.3766   51.3715 O   0  0  0  0  0  0  0  0  0  0  0  0
  2  3  1  0  0  0
  3  1  1  0  0  0
  1  4  1  0  0  0
  4  5  1  0  0  0
  5  6  1  0  0  0
M  END
> <minimizedAffinity>
-3.53017

$$$$
../data/sim100/91.pdb


  5  4  0  0  0  0  0  0  0  0999 V2000
   64.0377   44.1943   43.2046 C   0  0  0  0  0  0  0  0  0  0  0  0
   62.7706   46.0156   42.3562 O   0  0  0  0  0  0  0  0  0  0  0  0
   63.3609   44.8038   42.0022 C   0  0  0  0  0  0  0  0  0  0  0  0
   63.3203   44.4861   44.4881 C   0  0  0  0  0  0  0  0  0  0  0  0
   64.1615   44.4724   45.5910 O   0  0  0  0  0  0  0  0  0  0  0  0
  2  3  1  0  0  0
  3  1  1  0  0  0
  1  4  1  0  0  0
  4  5  1  0  0  0
M  END
> <minimizedAffinity>
-3.47285

$$$$
../data/sim100/92.pdb


  4  3  0  0  0  0  0  0  0  0999 V2000
   64.2494   43.9902   42.8100 C   0  0  0  0  0  0  0  0  0  0  0  0
   63.1465   44.8438   43.3878 C   0  0  0  0  0  0  0  0  0  0  0  0
   62.9368   44.5650   44.8689 C   0  0  0  0  0  0  0  0  0  0  0  0
   64.1255   44.3322   45.5059 O   0  0  0  0  0  0  0  0  0  0  0  0
  1  2  1  0  0  0
  2  3  1  0  0  0
  3  4  1  0  0  0
M  END
> <minimizedAffinity>
-3.17790

$$$$
../data/sim100/93.pdb


 12 12  0  0  0  0  0  0  0  0999 V2000
   74.0557   50.3627   53.8171 O   0  0  0  0  0  0  0  0  0  0  0  0
   73.8932   51.1807   54.8888 C   0  0  0  0  0  0  0  0  0  0  0  0
   73.2692   50.5323   56.0896 C   0  0  0  0  0  0  0  0  0  0  0  0
   71.9967   50.0453   55.8164 O   0  0  0  0  0  0  0  0  0  0  0  0
   73.2698   51.4159   57.2761 C   0  0  0  0  0  0  0  0  0  0  0  0
   71.9624   50.8137   58.3619 Cl  0  0  0  0  0  0  0  0  0  0  0  0
   73.0320   52.8522   57.0457 C   0  0  0  0  0  0  0  0  0  0  0  0
   73.7581   53.5946   58.0077 O   0  0  0  0  0  0  0  0  0  0  0  0
   73.3916   53.3858   55.7124 C   0  0  0  0  0  0  0  0  0  0  0  0
   72.7784   54.5967   55.4850 O   0  0  0  0  0  0  0  0  0  0  0  0
   73.0356   52.4161   54.5792 C   0  0  0  0  0  0  0  0  0  0  0  0
   71.3053   52.0367   54.7823 Cl  0  0  0  0  0  0  0  0  0  0  0  0
  2  1  1  0  0  0
  2  3  1  0  0  0
  2 11  1  0  0  0
  3  4  1  0  0  0
  3  5  1  0  0  0
  5  6  1  0  0  0
  5  7  1  0  0  0
  7  8  1  0  0  0
  7  9  1  0  0  0
  9 10  1  0  0  0
  9 11  1  0  0  0
 11 12  1  0  0  0
M  END
> <minimizedAffinity>
-4.99713

$$$$
../data/sim100/94.pdb


  5  5  0  0  0  0  0  0  0  0999 V2000
   62.4365   44.0773   44.5777 O   0  0  0  0  0  0  0  0  0  0  0  0
   63.4554   44.7664   43.9475 C   0  0  0  0  0  0  0  0  0  0  0  0
   62.8989   45.3960   42.6610 C   0  0  0  0  0  0  0  0  0  0  0  0
   63.2485   44.0744   41.9885 C   0  0  0  0  0  0  0  0  0  0  0  0
   64.3428   43.9387   43.0422 C   0  0  0  0  0  0  0  0  0  0  0  0
  1  2  1  0  0  0
  2  3  1  0  0  0
  2  5  1  0  0  0
  3  4  1  0  0  0
  4  5  1  0  0  0
M  END
> <minimizedAffinity>
-3.78423

$$$$
../data/sim100/95.pdb


  7  7  0  0  0  0  0  0  0  0999 V2000
   63.1618   46.3241   42.1188 O   0  0  0  0  0  0  0  0  0  0  0  0
   62.5034   45.1291   42.4246 C   0  0  0  0  0  0  0  0  0  0  0  0
   63.3300   43.9646   41.8620 C   0  0  0  0  0  0  0  0  0  0  0  0
   64.4406   43.7973   42.8440 C   0  0  0  0  0  0  0  0  0  0  0  0
   64.0876   44.6250   44.0711 C   0  0  0  0  0  0  0  0  0  0  0  0
   62.5959   44.8174   43.9078 C   0  0  0  0  0  0  0  0  0  0  0  0
   62.0748   45.8011   44.7044 O   0  0  0  0  0  0  0  0  0  0  0  0
  2  1  1  0  0  0
  2  3  1  0  0  0
  2  6  1  0  0  0
  3  4  1  0  0  0
  4  5  1  0  0  0
  5  6  1  0  0  0
  6  7  1  0  0  0
M  END
> <minimizedAffinity>
-4.42946

$$$$
../data/sim100/96.pdb


  7  6  0  0  0  0  0  0  0  0999 V2000
   69.3332   48.7969   53.8891 C   0  0  0  0  0  0  0  0  0  0  0  0
   68.5237   50.3829   53.7467 Cl  0  0  0  0  0  0  0  0  0  0  0  0
   70.0477   48.6550   55.5182 Cl  0  0  0  0  0  0  0  0  0  0  0  0
   68.1706   47.4675   53.7190 Cl  0  0  0  0  0  0  0  0  0  0  0  0
   69.9162   49.2353   51.6710 O   0  0  0  0  0  0  0  0  0  0  0  0
   70.4422   48.7077   52.8692 C   0  0  0  0  0  0  0  0  0  0  0  0
   71.5231   49.4378   53.3027 O   0  0  0  0  0  0  0  0  0  0  0  0
  5  6  1  0  0  0
  6  7  1  0  0  0
  6  1  1  0  0  0
  1  2  1  0  0  0
  1  3  1  0  0  0
  1  4  1  0  0  0
M  END
> <minimizedAffinity>
-3.43891

$$$$
../data/sim100/97.pdb


  5  4  0  0  0  0  0  0  0  0999 V2000
   63.5471   44.9872   43.0781 C   0  0  0  0  0  0  0  0  0  0  0  0
   64.5454   43.5986   42.6503 Cl  0  0  0  0  0  0  0  0  0  0  0  0
   62.5376   45.5405   41.7232 Cl  0  0  0  0  0  0  0  0  0  0  0  0
   62.0875   45.8771   44.7829 O   0  0  0  0  0  0  0  0  0  0  0  0
   62.7184   44.7511   44.3161 C   0  0  0  0  0  0  0  0  0  0  0  0
  4  5  1  0  0  0
  5  1  1  0  0  0
  1  2  1  0  0  0
  1  3  1  0  0  0
M  END
> <minimizedAffinity>
-3.63759

$$$$
../data/sim100/98.pdb


  5  4  0  0  0  0  0  0  0  0999 V2000
   62.6799   45.4335   42.1305 C   0  0  0  0  0  0  0  0  0  0  0  0
   63.7066   44.9268   43.1127 C   0  0  0  0  0  0  0  0  0  0  0  0
   64.4365   43.7351   42.5791 C   0  0  0  0  0  0  0  0  0  0  0  0
   63.0713   44.6642   44.4654 C   0  0  0  0  0  0  0  0  0  0  0  0
   64.0258   44.2927   45.4088 O   0  0  0  0  0  0  0  0  0  0  0  0
  1  2  1  0  0  0
  2  3  1  0  0  0
  2  4  1  0  0  0
  4  5  1  0  0  0
M  END
> <minimizedAffinity>
-3.83473

$$$$
../data/sim100/99.pdb


  8  7  0  0  0  0  0  0  0  0999 V2000
   69.6514   47.4481   52.5753 C   0  0  0  0  0  0  0  0  0  0  0  0
   69.9614   47.5302   51.2107 O   0  0  0  0  0  0  0  0  0  0  0  0
   67.7447   46.5019   53.9303 C   0  0  0  0  0  0  0  0  0  0  0  0
   68.6523   46.3648   52.7479 C   0  0  0  0  0  0  0  0  0  0  0  0
   67.7642   46.3636   51.4946 C   0  0  0  0  0  0  0  0  0  0  0  0
   69.3254   48.7594   53.1767 C   0  0  0  0  0  0  0  0  0  0  0  0
   70.0820   49.1291   54.3990 C   0  0  0  0  0  0  0  0  0  0  0  0
   69.4639   49.8458   52.1320 C   0  0  0  0  0  0  0  0  0  0  0  0
  3  4  1  0  0  0
  4  5  1  0  0  0
  4  1  1  0  0  0
  1  2  1  0  0  0
  1  6  1  0  0  0
  6  7  1  0  0  0
  6  8  1  0  0  0
M  END
> <minimizedAffinity>
-4.21724

$$$$
