../data/cho_sim50/306.pdb
     RDKit          3D

 16 16  0  0  1  0  0  0  0  0999 V2000
   -2.5540    0.5920    1.5820 C   0  0  0  0  0  0  0  0  0  0  0  0
   -2.2970    0.7040    0.2980 C   0  0  0  0  0  0  0  0  0  0  0  0
   -1.0200    0.9830   -0.1680 O   0  0  0  0  0  0  0  0  0  0  0  0
    0.1160    0.4560    0.5620 C   0  0  2  0  0  0  0  0  0  0  0  0
    1.3690    0.8430   -0.0630 C   0  0  0  0  0  0  0  0  0  0  0  0
    2.3560    0.0530   -0.4260 C   0  0  0  0  0  0  0  0  0  0  0  0
    3.5820    0.5690   -1.0540 C   0  0  0  0  0  0  0  0  0  0  0  0
    4.4620   -0.2700   -1.3610 O   0  0  0  0  0  0  0  0  0  0  0  0
    3.8050    1.8920   -1.3150 O   0  0  0  0  0  0  0  0  0  0  0  0
    2.1790   -1.3600   -0.1740 C   0  0  0  0  0  0  0  0  0  0  0  0
    1.0920   -1.8300    0.3860 C   0  0  0  0  0  0  0  0  0  0  0  0
   -0.0300   -0.9910    0.8060 C   0  0  2  0  0  0  0  0  0  0  0  0
   -1.2490   -1.5040    0.3230 O   0  0  0  0  0  0  0  0  0  0  0  0
   -3.3670    0.5340   -0.6650 C   0  0  0  0  0  0  0  0  0  0  0  0
   -4.5210    0.2830   -0.2550 O   0  0  0  0  0  0  0  0  0  0  0  0
   -3.1800    0.6360   -2.0300 O   0  0  0  0  0  0  0  0  0  0  0  0
  1  2  2  0
  2  3  1  0
  2 14  1  0
  4  3  1  6
  4  5  1  0
  4 12  1  0
  5  6  2  0
  6  7  1  0
  6 10  1  0
  7  8  2  0
  7  9  1  0
 10 11  2  0
 11 12  1  0
 12 13  1  6
 14 15  2  0
 14 16  1  0
M  END
$$$$
../data/cho_sim50/12039.pdb
     RDKit          3D

 16 16  0  0  1  0  0  0  0  0999 V2000
    2.6940    1.1760   -1.1810 C   0  0  0  0  0  0  0  0  0  0  0  0
    2.3840    0.0200   -0.6560 C   0  0  0  0  0  0  0  0  0  0  0  0
    1.1060   -0.4820   -0.8270 O   0  0  0  0  0  0  0  0  0  0  0  0
    0.1320   -0.4820    0.2060 C   0  0  2  0  0  0  0  0  0  0  0  0
   -1.0740   -1.0970   -0.3860 C   0  0  0  0  0  0  0  0  0  0  0  0
   -2.2070   -0.4700   -0.4200 C   0  0  0  0  0  0  0  0  0  0  0  0
   -3.3560   -1.1440   -1.0220 C   0  0  0  0  0  0  0  0  0  0  0  0
   -3.2420   -2.2840   -1.4870 O   0  0  0  0  0  0  0  0  0  0  0  0
   -4.5800   -0.4970   -1.0710 O   0  0  0  0  0  0  0  0  0  0  0  0
   -2.3710    0.8650    0.1160 C   0  0  0  0  0  0  0  0  0  0  0  0
   -1.3600    1.4870    0.6590 C   0  0  0  0  0  0  0  0  0  0  0  0
   -0.0260    0.8820    0.7560 C   0  0  1  0  0  0  0  0  0  0  0  0
    0.3080    0.8830    2.1340 O   0  0  0  0  0  0  0  0  0  0  0  0
    3.3560   -0.7560    0.1070 C   0  0  0  0  0  0  0  0  0  0  0  0
    3.0520   -1.8530    0.6010 O   0  0  0  0  0  0  0  0  0  0  0  0
    4.6510   -0.2850    0.3000 O   0  0  0  0  0  0  0  0  0  0  0  0
  1  2  2  0
  2  3  1  0
  2 14  1  0
  4  3  1  6
  4  5  1  0
  4 12  1  0
  5  6  2  0
  6  7  1  0
  6 10  1  0
  7  8  2  0
  7  9  1  0
 10 11  2  0
 11 12  1  0
 12 13  1  1
 14 15  2  0
 14 16  1  0
M  END
$$$$
../data/cho_sim50/5460312.pdb
     RDKit          3D

 16 16  0  0  1  0  0  0  0  0999 V2000
    2.9650   -0.5790    0.1440 C   0  0  0  0  0  0  0  0  0  0  0  0
    2.0160    0.1830   -0.4180 C   0  0  0  0  0  0  0  0  0  0  0  0
    1.2320   -0.4200   -1.3500 O   0  0  0  0  0  0  0  0  0  0  0  0
   -0.1170   -0.8330   -1.1590 C   0  0  2  0  0  0  0  0  0  0  0  0
   -0.9450    0.3220   -0.8610 C   0  0  0  0  0  0  0  0  0  0  0  0
   -1.6860    0.4960    0.2100 C   0  0  0  0  0  0  0  0  0  0  0  0
   -2.4760    1.7040    0.4080 C   0  0  0  0  0  0  0  0  0  0  0  0
   -3.1700    1.8290    1.4460 O   0  0  0  0  0  0  0  0  0  0  0  0
   -2.4810    2.7190   -0.5180 O   0  0  0  0  0  0  0  0  0  0  0  0
   -1.7350   -0.5910    1.1720 C   0  0  0  0  0  0  0  0  0  0  0  0
   -1.0660   -1.6890    0.9570 C   0  0  0  0  0  0  0  0  0  0  0  0
   -0.2370   -1.9500   -0.2070 C   0  0  1  0  0  0  0  0  0  0  0  0
   -0.7290   -3.1140   -0.8270 O   0  0  0  0  0  0  0  0  0  0  0  0
    1.9450    1.5510    0.0370 C   0  0  0  0  0  0  0  0  0  0  0  0
    1.0950    2.3300   -0.4380 O   0  0  0  0  0  0  0  0  0  0  0  0
    2.8040    2.0500    1.0040 O   0  0  0  0  0  0  0  0  0  0  0  0
  1  2  2  0
  2  3  1  0
  2 14  1  0
  4  3  1  1
  4  5  1  0
  4 12  1  0
  5  6  2  0
  6  7  1  0
  6 10  1  0
  7  8  2  0
  7  9  1  0
 10 11  2  0
 11 12  1  0
 12 13  1  6
 14 15  2  0
 14 16  1  0
M  END
$$$$
../data/cho_sim50/10680903.pdb
     RDKit          3D

 16 16  0  0  1  0  0  0  0  0999 V2000
    2.4540    0.2440    1.8930 C   0  0  0  0  0  0  0  0  0  0  0  0
    2.2750    0.1190    0.6050 C   0  0  0  0  0  0  0  0  0  0  0  0
    1.3540   -0.7940    0.1650 O   0  0  0  0  0  0  0  0  0  0  0  0
    0.2080   -0.4410   -0.6220 C   0  0  2  0  0  0  0  0  0  0  0  0
   -0.6550    0.4940    0.0700 C   0  0  0  0  0  0  0  0  0  0  0  0
   -1.9310    0.2750    0.2710 C   0  0  0  0  0  0  0  0  0  0  0  0
   -2.7350    1.2750    0.9810 C   0  0  0  0  0  0  0  0  0  0  0  0
   -2.1800    2.3200    1.3810 O   0  0  0  0  0  0  0  0  0  0  0  0
   -4.0980    1.0440    1.1980 O   0  0  0  0  0  0  0  0  0  0  0  0
   -2.5450   -0.9700   -0.2080 C   0  0  0  0  0  0  0  0  0  0  0  0
   -1.8140   -1.8480   -0.8300 C   0  0  0  0  0  0  0  0  0  0  0  0
   -0.4070   -1.6880   -1.0910 C   0  0  1  0  0  0  0  0  0  0  0  0
   -0.1130   -1.8860   -2.4760 O   0  0  0  0  0  0  0  0  0  0  0  0
    3.0550    0.9500   -0.3280 C   0  0  0  0  0  0  0  0  0  0  0  0
    2.8490    0.7950   -1.5440 O   0  0  0  0  0  0  0  0  0  0  0  0
    3.9820    1.8700    0.1080 O   0  0  0  0  0  0  0  0  0  0  0  0
  1  2  2  0
  2  3  1  0
  2 14  1  0
  4  3  1  1
  4  5  1  0
  4 12  1  0
  5  6  2  0
  6  7  1  0
  6 10  1  0
  7  8  2  0
  7  9  1  0
 10 11  2  0
 11 12  1  0
 12 13  1  6
 14 15  2  0
 14 16  1  0
M  END
$$$$
../data/cho_sim50/10751803.pdb
     RDKit          3D

 16 16  0  0  1  0  0  0  0  0999 V2000
   -2.5550   -1.3700   -1.1400 C   0  0  0  0  0  0  0  0  0  0  0  0
   -2.3470   -0.3650   -0.3200 C   0  0  0  0  0  0  0  0  0  0  0  0
   -1.3680    0.5550   -0.6390 O   0  0  0  0  0  0  0  0  0  0  0  0
   -0.0230    0.1900   -0.9360 C   0  0  2  0  0  0  0  0  0  0  0  0
    0.6210   -0.5050    0.1820 C   0  0  0  0  0  0  0  0  0  0  0  0
    1.7260   -0.1150    0.7480 C   0  0  0  0  0  0  0  0  0  0  0  0
    2.3190   -0.8640    1.8710 C   0  0  0  0  0  0  0  0  0  0  0  0
    3.3680   -0.4770    2.3950 O   0  0  0  0  0  0  0  0  0  0  0  0
    1.7060   -2.0120    2.3520 O   0  0  0  0  0  0  0  0  0  0  0  0
    2.4020    1.0830    0.2760 C   0  0  0  0  0  0  0  0  0  0  0  0
    1.8920    1.7550   -0.7120 C   0  0  0  0  0  0  0  0  0  0  0  0
    0.6590    1.4150   -1.4250 C   0  0  1  0  0  0  0  0  0  0  0  0
    0.9020    1.2510   -2.8100 O   0  0  0  0  0  0  0  0  0  0  0  0
   -3.1070   -0.1850    0.9090 C   0  0  0  0  0  0  0  0  0  0  0  0
   -4.0050   -1.0050    1.2290 O   0  0  0  0  0  0  0  0  0  0  0  0
   -2.8900    0.8750    1.7770 O   0  0  0  0  0  0  0  0  0  0  0  0
  1  2  2  0
  2  3  1  0
  2 14  1  0
  4  3  1  1
  4  5  1  0
  4 12  1  0
  5  6  2  0
  6  7  1  0
  6 10  1  0
  7  8  2  0
  7  9  1  0
 10 11  2  0
 11 12  1  0
 12 13  1  6
 14 15  2  0
 14 16  1  0
M  END
$$$$
../data/cho_sim50/11086296.pdb
     RDKit          3D

 18 18  0  0  1  0  0  0  0  0999 V2000
   -2.7970   -1.5560    1.7650 C   0  0  0  0  0  0  0  0  0  0  0  0
   -2.4940   -0.4430    1.1310 C   0  0  0  0  0  0  0  0  0  0  0  0
   -1.2020    0.0350    1.1660 O   0  0  0  0  0  0  0  0  0  0  0  0
   -0.0760   -0.8040    0.8920 C   0  0  2  0  0  0  0  0  0  0  0  0
    1.1740   -0.0320    0.9990 C   0  0  0  0  0  0  0  0  0  0  0  0
    2.0760    0.0440    0.0630 C   0  0  0  0  0  0  0  0  0  0  0  0
    3.2870    0.8260    0.2410 C   0  0  0  0  0  0  0  0  0  0  0  0
    3.4630    1.4460    1.3340 O   0  0  0  0  0  0  0  0  0  0  0  0
    4.2570    0.9170   -0.7490 O   0  0  0  0  0  0  0  0  0  0  0  0
    5.4170    1.6710   -0.5680 C   0  0  0  0  0  0  0  0  0  0  0  0
    1.8910   -0.6600   -1.1990 C   0  0  0  0  0  0  0  0  0  0  0  0
    0.8060   -1.3730   -1.3840 C   0  0  0  0  0  0  0  0  0  0  0  0
   -0.2700   -1.5250   -0.3960 C   0  0  1  0  0  0  0  0  0  0  0  0
   -0.5180   -2.8880   -0.1570 O   0  0  0  0  0  0  0  0  0  0  0  0
   -3.5410    0.2550    0.4070 C   0  0  0  0  0  0  0  0  0  0  0  0
   -4.7170   -0.1740    0.3720 O   0  0  0  0  0  0  0  0  0  0  0  0
   -3.2890    1.4380   -0.2840 O   0  0  0  0  0  0  0  0  0  0  0  0
   -4.3360    2.1160   -0.9950 C   0  0  0  0  0  0  0  0  0  0  0  0
  1  2  2  0
  2  3  1  0
  2 15  1  0
  4  3  1  6
  4  5  1  0
  4 13  1  0
  5  6  2  0
  6  7  1  0
  6 11  1  0
  7  8  2  0
  7  9  1  0
  9 10  1  0
 11 12  2  0
 12 13  1  0
 13 14  1  1
 15 16  2  0
 15 17  1  0
 17 18  1  0
M  END
$$$$
../data/cho_sim50/13257072.pdb
     RDKit          3D

 16 16  0  0  1  0  0  0  0  0999 V2000
    2.3140    0.8050    1.2500 C   0  0  0  0  0  0  0  0  0  0  0  0
    2.1550   -0.3490    0.6420 C   0  0  0  0  0  0  0  0  0  0  0  0
    0.9470   -1.0360    0.6260 O   0  0  0  0  0  0  0  0  0  0  0  0
   -0.0570   -0.7800   -0.3640 C   0  0  2  0  0  0  0  0  0  0  0  0
   -0.4580    0.6250   -0.2610 C   0  0  0  0  0  0  0  0  0  0  0  0
   -1.6890    1.0660   -0.0820 C   0  0  0  0  0  0  0  0  0  0  0  0
   -2.0080    2.4880    0.0110 C   0  0  0  0  0  0  0  0  0  0  0  0
   -3.1970    2.8540    0.1810 O   0  0  0  0  0  0  0  0  0  0  0  0
   -1.0310    3.4640   -0.0830 O   0  0  0  0  0  0  0  0  0  0  0  0
   -2.7420    0.0620    0.0200 C   0  0  0  0  0  0  0  0  0  0  0  0
   -2.5050   -1.2200   -0.0580 C   0  0  0  0  0  0  0  0  0  0  0  0
   -1.1440   -1.7830   -0.2580 C   0  0  1  0  0  0  0  0  0  0  0  0
   -1.2120   -2.5100   -1.4710 O   0  0  0  0  0  0  0  0  0  0  0  0
    3.2780   -0.9550   -0.0500 C   0  0  0  0  0  0  0  0  0  0  0  0
    3.1700   -2.0750   -0.6540 O   0  0  0  0  0  0  0  0  0  0  0  0
    4.4950   -0.2900   -0.0480 O   0  0  0  0  0  0  0  0  0  0  0  0
  1  2  2  0
  2  3  1  0
  2 14  1  0
  4  3  1  1
  4  5  1  0
  4 12  1  0
  5  6  2  0
  6  7  1  0
  6 10  1  0
  7  8  2  0
  7  9  1  0
 10 11  2  0
 11 12  1  0
 12 13  1  6
 14 15  2  0
 14 16  1  0
M  END
$$$$
../data/cho_sim50/16219080.pdb
     RDKit          3D

 16 16  0  0  1  0  0  0  0  0999 V2000
    2.4280    1.4610    1.4420 C   0  0  0  0  0  0  0  0  0  0  0  0
    2.2180    0.8270    0.3090 C   0  0  0  0  0  0  0  0  0  0  0  0
    0.9610    0.9070   -0.2520 O   0  0  0  0  0  0  0  0  0  0  0  0
    0.0760   -0.2290   -0.2760 C   0  0  2  0  0  0  0  0  0  0  0  0
   -1.1560    0.1920   -0.9330 C   0  0  0  0  0  0  0  0  0  0  0  0
   -2.3810    0.0630   -0.4600 C   0  0  0  0  0  0  0  0  0  0  0  0
   -3.5600    0.5090   -1.1760 C   0  0  0  0  0  0  0  0  0  0  0  0
   -4.6850    0.3530   -0.6640 O   0  0  0  0  0  0  0  0  0  0  0  0
   -3.4510    1.1000   -2.4130 O   0  0  0  0  0  0  0  0  0  0  0  0
   -2.4880   -0.5660    0.8570 C   0  0  0  0  0  0  0  0  0  0  0  0
   -1.4460   -0.9750    1.5230 C   0  0  0  0  0  0  0  0  0  0  0  0
   -0.0840   -0.8490    1.0320 C   0  0  1  0  0  0  0  0  0  0  0  0
    0.6210   -2.0750    1.1470 O   0  0  0  0  0  0  0  0  0  0  0  0
    3.3060    0.0760   -0.2980 C   0  0  0  0  0  0  0  0  0  0  0  0
    3.1100   -0.5310   -1.3800 O   0  0  0  0  0  0  0  0  0  0  0  0
    4.5690   -0.0060    0.2630 O   0  0  0  0  0  0  0  0  0  0  0  0
  1  2  2  0
  2  3  1  0
  2 14  1  0
  4  3  1  1
  4  5  1  0
  4 12  1  0
  5  6  2  0
  6  7  1  0
  6 10  1  0
  7  8  2  0
  7  9  1  0
 10 11  2  0
 11 12  1  0
 12 13  1  6
 14 15  2  0
 14 16  1  0
M  END
$$$$
../data/cho_sim50/24962614.pdb
     RDKit          3D

 18 18  0  0  0  0  0  0  0  0999 V2000
   -4.9160    0.8450    0.5790 C   0  0  0  0  0  0  0  0  0  0  0  0
   -4.2680   -0.0030   -0.5110 C   0  0  0  0  0  0  0  0  0  0  0  0
   -4.9620   -1.3280   -0.5490 C   0  0  0  0  0  0  0  0  0  0  0  0
   -2.9220   -0.1970   -0.1190 O   0  0  0  0  0  0  0  0  0  0  0  0
   -1.8360    0.2520   -0.8380 C   0  0  0  0  0  0  0  0  0  0  0  0
   -2.0310    0.8700   -1.9040 O   0  0  0  0  0  0  0  0  0  0  0  0
   -0.4810    0.0050   -0.3550 C   0  0  0  0  0  0  0  0  0  0  0  0
    0.5360    0.4350   -1.0460 C   0  0  0  0  0  0  0  0  0  0  0  0
    1.9460    0.3060   -0.7630 C   0  0  0  0  0  0  0  0  0  0  0  0
    2.9010    0.8450   -1.6410 C   0  0  0  0  0  0  0  0  0  0  0  0
    4.1760    0.7400   -1.4050 O   0  0  0  0  0  0  0  0  0  0  0  0
    4.6800    0.1420   -0.3610 C   0  0  0  0  0  0  0  0  0  0  0  0
    6.1280    0.0640   -0.1620 C   0  0  0  0  0  0  0  0  0  0  0  0
    6.9110    0.5670   -0.9870 O   0  0  0  0  0  0  0  0  0  0  0  0
    6.6440   -0.5720    0.9490 O   0  0  0  0  0  0  0  0  0  0  0  0
    3.8320   -0.4210    0.5650 C   0  0  0  0  0  0  0  0  0  0  0  0
    2.4700   -0.3250    0.3400 C   0  0  0  0  0  0  0  0  0  0  0  0
    1.7380   -0.8520    1.2090 O   0  0  0  0  0  0  0  0  0  0  0  0
  1  2  1  0
  2  3  1  0
  2  4  1  0
  4  5  1  0
  5  6  2  0
  5  7  1  0
  7  8  2  0
  8  9  1  0
  9 10  2  0
  9 17  1  0
 10 11  1  0
 11 12  1  0
 12 13  1  0
 12 16  2  0
 13 14  2  0
 13 15  1  0
 16 17  1  0
 17 18  2  0
M  END
$$$$
../data/cho_sim50/44123452.pdb
     RDKit          3D

 16 16  0  0  1  0  0  0  0  0999 V2000
    2.3310   -0.6800    2.1010 C   0  0  0  0  0  0  0  0  0  0  0  0
    2.3050   -0.7130    0.7850 C   0  0  0  0  0  0  0  0  0  0  0  0
    1.2050   -1.2420    0.1290 O   0  0  0  0  0  0  0  0  0  0  0  0
    0.4270   -0.4850   -0.7930 C   0  0  2  0  0  0  0  0  0  0  0  0
   -0.1060    0.6620   -0.0530 C   0  0  0  0  0  0  0  0  0  0  0  0
   -1.3060    1.1230    0.2330 C   0  0  0  0  0  0  0  0  0  0  0  0
   -1.3530    2.3440    1.0260 C   0  0  0  0  0  0  0  0  0  0  0  0
   -0.3520    2.9670    1.4420 O   0  0  0  0  0  0  0  0  0  0  0  0
   -2.6060    2.8430    1.3360 O   0  0  0  0  0  0  0  0  0  0  0  0
   -2.5650    0.5180   -0.1750 C   0  0  0  0  0  0  0  0  0  0  0  0
   -2.7780   -0.7210   -0.6140 C   0  0  0  0  0  0  0  0  0  0  0  0
   -1.7580   -1.7670   -0.7830 C   0  0  0  0  0  0  0  0  0  0  0  0
   -0.5350   -1.3370   -1.5110 C   0  0  0  0  0  0  0  0  0  0  0  0
    3.4430   -0.1880    0.0540 C   0  0  0  0  0  0  0  0  0  0  0  0
    4.4310    0.2870    0.6590 O   0  0  0  0  0  0  0  0  0  0  0  0
    3.5000   -0.1830   -1.3340 O   0  0  0  0  0  0  0  0  0  0  0  0
  1  2  2  0
  2  3  1  0
  2 14  1  0
  4  3  1  1
  4  5  1  0
  4 13  1  0
  5  6  2  0
  6  7  1  0
  6 10  1  0
  7  8  2  0
  7  9  1  0
 10 11  2  0
 11 12  1  0
 12 13  1  0
 14 15  2  0
 14 16  1  0
M  END
$$$$
../data/cho_sim50/44329975.pdb
     RDKit          3D

 13 13  0  0  1  0  0  0  0  0999 V2000
    1.9390   -1.7490    0.0180 C   0  0  0  0  0  0  0  0  0  0  0  0
    1.9280   -0.4650   -0.2620 C   0  0  0  0  0  0  0  0  0  0  0  0
    0.8570    0.1130   -0.8650 O   0  0  0  0  0  0  0  0  0  0  0  0
   -0.4870   -0.3420   -0.7540 C   0  0  2  0  0  0  0  0  0  0  0  0
   -1.2830    0.5900   -1.5720 C   0  0  0  0  0  0  0  0  0  0  0  0
   -2.2970    1.3120   -1.1510 C   0  0  0  0  0  0  0  0  0  0  0  0
   -2.6910    1.2020    0.2400 C   0  0  0  0  0  0  0  0  0  0  0  0
   -2.0610    0.4120    1.0520 C   0  0  0  0  0  0  0  0  0  0  0  0
   -0.9280   -0.4200    0.6610 C   0  0  1  0  0  0  0  0  0  0  0  0
   -1.2680   -1.7400    1.0330 O   0  0  0  0  0  0  0  0  0  0  0  0
    3.0850    0.3280    0.0870 C   0  0  0  0  0  0  0  0  0  0  0  0
    4.1010   -0.1660    0.6480 O   0  0  0  0  0  0  0  0  0  0  0  0
    3.0740    1.6810   -0.2070 O   0  0  0  0  0  0  0  0  0  0  0  0
  1  2  2  0
  2  3  1  0
  2 11  1  0
  4  3  1  1
  4  5  1  0
  4  9  1  0
  5  6  2  0
  6  7  1  0
  7  8  2  0
  8  9  1  0
  9 10  1  6
 11 12  2  0
 11 13  1  0
M  END
$$$$
../data/cho_sim50/44329976.pdb
     RDKit          3D

 13 13  0  0  1  0  0  0  0  0999 V2000
    2.1910   -1.5920    1.0590 C   0  0  0  0  0  0  0  0  0  0  0  0
    1.8600   -0.8700    0.0100 C   0  0  0  0  0  0  0  0  0  0  0  0
    0.5980   -1.0460   -0.5400 O   0  0  0  0  0  0  0  0  0  0  0  0
   -0.3190    0.0470   -0.3420 C   0  0  2  0  0  0  0  0  0  0  0  0
   -0.5490    0.3000    1.0670 C   0  0  0  0  0  0  0  0  0  0  0  0
   -1.7440    0.4420    1.5890 C   0  0  0  0  0  0  0  0  0  0  0  0
   -2.9110    0.3420    0.7190 C   0  0  0  0  0  0  0  0  0  0  0  0
   -2.7740    0.1160   -0.5530 C   0  0  0  0  0  0  0  0  0  0  0  0
   -1.4970   -0.0490   -1.1900 C   0  0  1  0  0  0  0  0  0  0  0  0
   -1.3850    0.7490   -2.3640 O   0  0  0  0  0  0  0  0  0  0  0  0
    2.8110    0.0990   -0.5610 C   0  0  0  0  0  0  0  0  0  0  0  0
    2.4720    0.7760   -1.5620 O   0  0  0  0  0  0  0  0  0  0  0  0
    4.0640    0.2720   -0.0130 O   0  0  0  0  0  0  0  0  0  0  0  0
  1  2  2  0
  2  3  1  0
  2 11  1  0
  4  3  1  1
  4  5  1  0
  4  9  1  0
  5  6  2  0
  6  7  1  0
  7  8  2  0
  8  9  1  0
  9 10  1  6
 11 12  2  0
 11 13  1  0
M  END
$$$$
../data/cho_sim50/54448451.pdb
     RDKit          3D

 16 16  0  0  1  0  0  0  0  0999 V2000
    2.4920   -1.1710   -0.7020 C   0  0  0  0  0  0  0  0  0  0  0  0
    2.3280   -0.3180    0.2840 C   0  0  0  0  0  0  0  0  0  0  0  0
    1.3590    0.6670    0.2410 O   0  0  0  0  0  0  0  0  0  0  0  0
    0.2210    0.6200   -0.6280 C   0  0  1  0  0  0  0  0  0  0  0  0
   -0.5810   -0.5770   -0.3410 C   0  0  0  0  0  0  0  0  0  0  0  0
   -1.8630   -0.5530   -0.0210 C   0  0  0  0  0  0  0  0  0  0  0  0
   -2.6300   -1.7600    0.2570 C   0  0  0  0  0  0  0  0  0  0  0  0
   -2.0780   -2.8770    0.1970 O   0  0  0  0  0  0  0  0  0  0  0  0
   -3.9740   -1.7210    0.5920 O   0  0  0  0  0  0  0  0  0  0  0  0
   -2.5300    0.7370    0.0600 C   0  0  0  0  0  0  0  0  0  0  0  0
   -1.8930    1.8550   -0.1730 C   0  0  0  0  0  0  0  0  0  0  0  0
   -0.4770    1.9090   -0.5310 C   0  0  2  0  0  0  0  0  0  0  0  0
   -0.3180    2.6430   -1.7470 O   0  0  0  0  0  0  0  0  0  0  0  0
    3.1920   -0.4110    1.4570 C   0  0  0  0  0  0  0  0  0  0  0  0
    3.0710    0.3850    2.4240 O   0  0  0  0  0  0  0  0  0  0  0  0
    4.1750   -1.3830    1.5370 O   0  0  0  0  0  0  0  0  0  0  0  0
  1  2  2  0
  2  3  1  0
  2 14  1  0
  4  3  1  1
  4  5  1  0
  4 12  1  0
  5  6  2  0
  6  7  1  0
  6 10  1  0
  7  8  2  0
  7  9  1  0
 10 11  2  0
 11 12  1  0
 12 13  1  6
 14 15  2  0
 14 16  1  0
M  END
$$$$
../data/cho_sim50/57759058.pdb
     RDKit          3D

 16 16  0  0  1  0  0  0  0  0999 V2000
    2.3110   -0.9250   -1.0510 C   0  0  0  0  0  0  0  0  0  0  0  0
    2.2850   -0.2390    0.0640 C   0  0  0  0  0  0  0  0  0  0  0  0
    1.3600    0.7630    0.3210 O   0  0  0  0  0  0  0  0  0  0  0  0
    0.1230    0.7620   -0.3730 C   0  0  1  0  0  0  0  0  0  0  0  0
   -0.5530   -0.5030   -0.0800 C   0  0  0  0  0  0  0  0  0  0  0  0
   -1.7870   -0.5770    0.3470 C   0  0  0  0  0  0  0  0  0  0  0  0
   -2.4130   -1.8900    0.6260 C   0  0  0  0  0  0  0  0  0  0  0  0
   -1.7850   -2.9370    0.4610 O   0  0  0  0  0  0  0  0  0  0  0  0
   -3.7110   -1.9130    1.0720 O   0  0  0  0  0  0  0  0  0  0  0  0
   -2.5440    0.6430    0.5490 C   0  0  0  0  0  0  0  0  0  0  0  0
   -2.0140    1.7990    0.3120 C   0  0  0  0  0  0  0  0  0  0  0  0
   -0.6540    2.0060   -0.1640 C   0  0  1  0  0  0  0  0  0  0  0  0
    0.0460    2.9240    0.6480 O   0  0  0  0  0  0  0  0  0  0  0  0
    3.3040   -0.5790    1.0640 C   0  0  0  0  0  0  0  0  0  0  0  0
    3.3150    0.0490    2.1380 O   0  0  0  0  0  0  0  0  0  0  0  0
    4.2350   -1.5630    0.8450 O   0  0  0  0  0  0  0  0  0  0  0  0
  1  2  2  0
  2  3  1  0
  2 14  1  0
  4  3  1  1
  4  5  1  0
  4 12  1  0
  5  6  2  0
  6  7  1  0
  6 10  1  0
  7  8  2  0
  7  9  1  0
 10 11  2  0
 11 12  1  0
 12 13  1  1
 14 15  2  0
 14 16  1  0
M  END
$$$$
../data/cho_sim50/57759059.pdb
     RDKit          3D

 16 16  0  0  1  0  0  0  0  0999 V2000
   -0.4300    1.8000   -1.2960 C   0  0  0  0  0  0  0  0  0  0  0  0
    0.6460    1.9310   -0.5400 C   0  0  0  0  0  0  0  0  0  0  0  0
    0.7230    1.5460    0.7650 O   0  0  0  0  0  0  0  0  0  0  0  0
    0.3620    0.2920    1.3000 C   0  0  1  0  0  0  0  0  0  0  0  0
   -1.0500   -0.0250    1.0770 C   0  0  0  0  0  0  0  0  0  0  0  0
   -1.5280   -1.1270    0.5370 C   0  0  0  0  0  0  0  0  0  0  0  0
   -2.9700   -1.3420    0.3610 C   0  0  0  0  0  0  0  0  0  0  0  0
   -3.7640   -0.4310    0.7440 O   0  0  0  0  0  0  0  0  0  0  0  0
   -3.4190   -2.5070   -0.2080 O   0  0  0  0  0  0  0  0  0  0  0  0
   -0.5920   -2.1390    0.1120 C   0  0  0  0  0  0  0  0  0  0  0  0
    0.6940   -1.9580    0.2630 C   0  0  0  0  0  0  0  0  0  0  0  0
    1.3080   -0.7660    0.8510 C   0  0  1  0  0  0  0  0  0  0  0  0
    2.2010   -0.2500   -0.1030 O   0  0  0  0  0  0  0  0  0  0  0  0
    1.8410    2.5340   -1.1470 C   0  0  0  0  0  0  0  0  0  0  0  0
    1.8470    2.9170   -2.3560 O   0  0  0  0  0  0  0  0  0  0  0  0
    3.0180    2.7170   -0.4370 O   0  0  0  0  0  0  0  0  0  0  0  0
  1  2  2  0
  2  3  1  0
  2 14  1  0
  4  3  1  6
  4  5  1  0
  4 12  1  0
  5  6  2  0
  6  7  1  0
  6 10  1  0
  7  8  2  0
  7  9  1  0
 10 11  2  0
 11 12  1  0
 12 13  1  6
 14 15  2  0
 14 16  1  0
M  END
$$$$
../data/cho_sim50/59477064.pdb
     RDKit          3D

 16 16  0  0  1  0  0  0  0  0999 V2000
    2.9250   -0.1790   -1.0990 C   0  0  0  0  0  0  0  0  0  0  0  0
    2.3540   -0.3030    0.0730 C   0  0  0  0  0  0  0  0  0  0  0  0
    1.1170   -0.9100    0.1430 O   0  0  0  0  0  0  0  0  0  0  0  0
   -0.0700   -0.1610    0.5120 C   0  0  2  0  0  0  0  0  0  0  0  0
   -1.1440   -1.1280    0.4740 C   0  0  0  0  0  0  0  0  0  0  0  0
   -2.1440   -1.0760   -0.3550 C   0  0  0  0  0  0  0  0  0  0  0  0
   -3.2010   -2.0990   -0.3350 C   0  0  0  0  0  0  0  0  0  0  0  0
   -4.1590   -2.0390   -1.1380 O   0  0  0  0  0  0  0  0  0  0  0  0
   -3.1200   -3.1290    0.5840 O   0  0  0  0  0  0  0  0  0  0  0  0
   -2.2250    0.0150   -1.3070 C   0  0  0  0  0  0  0  0  0  0  0  0
   -1.3020    0.9500   -1.3410 C   0  0  0  0  0  0  0  0  0  0  0  0
   -0.1570    0.9530   -0.4370 C   0  0  1  0  0  0  0  0  0  0  0  0
   -0.3230    2.2380    0.4240 C   0  0  0  0  0  0  0  0  0  0  0  0
    3.0460    0.2020    1.2490 C   0  0  0  0  0  0  0  0  0  0  0  0
    2.5580    0.1180    2.4110 O   0  0  0  0  0  0  0  0  0  0  0  0
    4.2880    0.8050    1.1410 O   0  0  0  0  0  0  0  0  0  0  0  0
  1  2  2  0
  2  3  1  0
  2 14  1  0
  4  3  1  6
  4  5  1  0
  4 12  1  0
  5  6  2  0
  6  7  1  0
  6 10  1  0
  7  8  2  0
  7  9  1  0
 10 11  2  0
 11 12  1  0
 12 13  1  1
 14 15  2  0
 14 16  1  0
M  END
$$$$
../data/cho_sim50/59477066.pdb
     RDKit          3D

 16 16  0  0  1  0  0  0  0  0999 V2000
    2.9760   -1.4560    0.6330 C   0  0  0  0  0  0  0  0  0  0  0  0
    2.4970   -0.7580   -0.3720 C   0  0  0  0  0  0  0  0  0  0  0  0
    1.1210   -0.7930   -0.5980 O   0  0  0  0  0  0  0  0  0  0  0  0
    0.3030   -0.2640    0.4670 C   0  0  1  0  0  0  0  0  0  0  0  0
    0.6610    1.1570    0.6900 C   0  0  0  0  0  0  0  0  0  0  0  0
   -0.4580    2.1140    0.6250 C   0  0  0  0  0  0  0  0  0  0  0  0
   -1.6760    1.7370    0.3880 C   0  0  0  0  0  0  0  0  0  0  0  0
   -2.0720    0.3520    0.1620 C   0  0  0  0  0  0  0  0  0  0  0  0
   -3.4710    0.0320   -0.0970 C   0  0  0  0  0  0  0  0  0  0  0  0
   -3.9010   -1.1300   -0.3010 O   0  0  0  0  0  0  0  0  0  0  0  0
   -4.4250    1.0490   -0.1280 O   0  0  0  0  0  0  0  0  0  0  0  0
   -1.1200   -0.5500    0.2080 C   0  0  0  0  0  0  0  0  0  0  0  0
   -1.5210   -1.9630   -0.0220 C   0  0  0  0  0  0  0  0  0  0  0  0
    3.4000    0.0170   -1.2030 C   0  0  0  0  0  0  0  0  0  0  0  0
    4.6270    0.0030   -0.9430 O   0  0  0  0  0  0  0  0  0  0  0  0
    2.9850    0.7770   -2.2760 O   0  0  0  0  0  0  0  0  0  0  0  0
  1  2  2  0
  2  3  1  0
  2 14  1  0
  4  3  1  6
  4  5  1  0
  4 12  1  0
  5  6  1  0
  6  7  2  0
  7  8  1  0
  8  9  1  0
  8 12  2  0
  9 10  2  0
  9 11  1  0
 12 13  1  0
 14 15  2  0
 14 16  1  0
M  END
$$$$
../data/cho_sim50/66679548.pdb
     RDKit          3D

 15 15  0  0  1  0  0  0  0  0999 V2000
    2.1740    0.8900   -1.1470 C   0  0  0  0  0  0  0  0  0  0  0  0
    2.1720    0.0900   -0.1090 C   0  0  0  0  0  0  0  0  0  0  0  0
    1.2870   -0.9450    0.1180 O   0  0  0  0  0  0  0  0  0  0  0  0
    0.0000   -0.9250   -0.5210 C   0  0  2  0  0  0  0  0  0  0  0  0
   -0.7070    0.2910   -0.0950 C   0  0  0  0  0  0  0  0  0  0  0  0
   -1.8960    0.3160    0.4300 C   0  0  0  0  0  0  0  0  0  0  0  0
   -2.5280    1.5980    0.8290 C   0  0  0  0  0  0  0  0  0  0  0  0
   -3.6680    1.5330    1.3240 O   0  0  0  0  0  0  0  0  0  0  0  0
   -1.8880    2.8040    0.6600 O   0  0  0  0  0  0  0  0  0  0  0  0
   -2.6160   -0.9230    0.6310 C   0  0  0  0  0  0  0  0  0  0  0  0
   -2.0680   -2.0580    0.2830 C   0  0  0  0  0  0  0  0  0  0  0  0
   -0.7330   -2.2050   -0.3170 C   0  0  0  0  0  0  0  0  0  0  0  0
    3.2090    0.3070    0.9220 C   0  0  0  0  0  0  0  0  0  0  0  0
    3.2960   -0.4030    1.9550 O   0  0  0  0  0  0  0  0  0  0  0  0
    4.1530    1.3220    0.7960 O   0  0  0  0  0  0  0  0  0  0  0  0
  1  2  2  0
  2  3  1  0
  2 13  1  0
  4  3  1  1
  4  5  1  0
  4 12  1  0
  5  6  2  0
  6  7  1  0
  6 10  1  0
  7  8  2  0
  7  9  1  0
 10 11  2  0
 11 12  1  0
 13 14  2  0
 13 15  1  0
M  END
$$$$
../data/cho_sim50/67149829.pdb
     RDKit          3D

 17 17  0  0  1  0  0  0  0  0999 V2000
    4.5090    0.9800   -1.0830 O   0  0  0  0  0  0  0  0  0  0  0  0
    5.0880   -0.1030   -0.8340 C   0  0  0  0  0  0  0  0  0  0  0  0
    6.4730   -0.0730   -0.7560 O   0  0  0  0  0  0  0  0  0  0  0  0
    4.4090   -1.3870   -0.6220 C   0  0  0  0  0  0  0  0  0  0  0  0
    3.0210   -1.3190   -0.7200 O   0  0  0  0  0  0  0  0  0  0  0  0
    2.2170   -0.5260    0.0900 C   0  0  0  0  0  0  0  0  0  0  0  0
    2.8050    0.1640    0.9580 O   0  0  0  0  0  0  0  0  0  0  0  0
    0.7700   -0.4770   -0.0390 C   0  0  0  0  0  0  0  0  0  0  0  0
    0.0940    0.3020    0.7710 C   0  0  0  0  0  0  0  0  0  0  0  0
   -1.3540    0.4420    0.7470 C   0  0  0  0  0  0  0  0  0  0  0  0
   -1.9550    1.2350    1.5830 C   0  0  0  0  0  0  0  0  0  0  0  0
   -3.4280    1.4680    1.6650 C   0  0  0  0  0  0  0  0  0  0  0  0
   -4.1220    0.5240    0.7810 C   0  0  0  0  0  0  0  0  0  0  0  0
   -5.2510    0.1630    1.0610 O   0  0  0  0  0  0  0  0  0  0  0  0
   -3.5060   -0.0160   -0.4490 C   0  0  2  0  0  0  0  0  0  0  0  0
   -4.1920   -1.1460   -0.8880 O   0  0  0  0  0  0  0  0  0  0  0  0
   -2.0710   -0.3770   -0.2860 C   0  0  0  0  0  0  0  0  0  0  0  0
  1  2  2  0
  2  3  1  0
  2  4  1  0
  4  5  1  0
  5  6  1  0
  6  7  2  0
  6  8  1  0
  8  9  2  0
  9 10  1  0
 10 11  2  0
 10 17  1  0
 11 12  1  0
 12 13  1  0
 13 14  2  0
 13 15  1  0
 15 16  1  1
 15 17  1  0
M  END
$$$$
../data/cho_sim50/70627842.pdb
     RDKit          3D

 13 13  0  0  1  0  0  0  0  0999 V2000
   -0.1860    2.7170   -0.1890 C   0  0  0  0  0  0  0  0  0  0  0  0
    0.0660    1.3790   -0.8920 C   0  0  2  0  0  0  0  0  0  0  0  0
   -1.1280    0.5140   -0.7290 C   0  0  0  0  0  0  0  0  0  0  0  0
   -1.1100   -0.6750   -0.1810 C   0  0  0  0  0  0  0  0  0  0  0  0
   -2.3280   -1.4770   -0.0520 C   0  0  0  0  0  0  0  0  0  0  0  0
   -3.4210   -1.0180   -0.4750 O   0  0  0  0  0  0  0  0  0  0  0  0
   -2.3430   -2.7280    0.5190 O   0  0  0  0  0  0  0  0  0  0  0  0
    0.1590   -1.1980    0.3070 C   0  0  0  0  0  0  0  0  0  0  0  0
    1.2690   -0.4840    0.1970 C   0  0  0  0  0  0  0  0  0  0  0  0
    2.5240   -1.0510    0.7010 C   0  0  0  0  0  0  0  0  0  0  0  0
    2.5870   -2.1800    1.2300 O   0  0  0  0  0  0  0  0  0  0  0  0
    3.6770   -0.3080    0.5860 O   0  0  0  0  0  0  0  0  0  0  0  0
    1.2170    0.7670   -0.3860 O   0  0  0  0  0  0  0  0  0  0  0  0
  2  1  1  1
  2  3  1  0
  2 13  1  0
  3  4  2  0
  4  5  1  0
  4  8  1  0
  5  6  2  0
  5  7  1  0
  8  9  2  0
  9 10  1  0
  9 13  1  0
 10 11  2  0
 10 12  1  0
M  END
$$$$
../data/cho_sim50/70657798.pdb
     RDKit          3D

 16 16  0  0  1  0  0  0  0  0999 V2000
    2.5260    0.5540   -1.5850 C   0  0  0  0  0  0  0  0  0  0  0  0
    2.1440    0.0770   -0.4180 C   0  0  0  0  0  0  0  0  0  0  0  0
    1.2180   -0.9590   -0.3950 O   0  0  0  0  0  0  0  0  0  0  0  0
   -0.1000   -0.6130   -0.8640 C   0  0  2  0  0  0  0  0  0  0  0  0
   -0.5610    0.4550    0.0250 C   0  0  0  0  0  0  0  0  0  0  0  0
   -1.6930    0.4030    0.6980 C   0  0  0  0  0  0  0  0  0  0  0  0
   -2.0790    1.5110    1.5630 C   0  0  0  0  0  0  0  0  0  0  0  0
   -3.1630    1.4440    2.1990 O   0  0  0  0  0  0  0  0  0  0  0  0
   -1.2510    2.6080    1.6690 O   0  0  0  0  0  0  0  0  0  0  0  0
   -2.5560   -0.7560    0.5780 C   0  0  0  0  0  0  0  0  0  0  0  0
   -2.2160   -1.7530   -0.2000 C   0  0  0  0  0  0  0  0  0  0  0  0
   -0.9820   -1.7650   -0.9720 C   0  0  2  0  0  0  0  0  0  0  0  0
   -0.3350   -2.9920   -0.6850 O   0  0  0  0  0  0  0  0  0  0  0  0
    2.6740    0.6130    0.8080 C   0  0  0  0  0  0  0  0  0  0  0  0
    2.3500    0.2020    1.9400 O   0  0  0  0  0  0  0  0  0  0  0  0
    3.6060    1.6570    0.7660 O   0  0  0  0  0  0  0  0  0  0  0  0
  1  2  2  0
  2  3  1  0
  2 14  1  0
  4  3  1  1
  4  5  1  0
  4 12  1  0
  5  6  2  0
  6  7  1  0
  6 10  1  0
  7  8  2  0
  7  9  1  0
 10 11  2  0
 11 12  1  0
 12 13  1  1
 14 15  2  0
 14 16  1  0
M  END
$$$$
../data/cho_sim50/74374535.pdb
     RDKit          3D

 18 18  0  0  0  0  0  0  0  0999 V2000
   -4.4180   -1.3370    0.1260 C   0  0  0  0  0  0  0  0  0  0  0  0
   -3.9410    0.0770    0.2800 C   0  0  0  0  0  0  0  0  0  0  0  0
   -4.5610    1.0050   -0.7470 C   0  0  0  0  0  0  0  0  0  0  0  0
   -2.5470    0.1110    0.2600 O   0  0  0  0  0  0  0  0  0  0  0  0
   -1.7880    0.5620    1.3030 C   0  0  0  0  0  0  0  0  0  0  0  0
   -2.3620    0.9640    2.3240 O   0  0  0  0  0  0  0  0  0  0  0  0
   -0.3180    0.5420    1.1490 C   0  0  0  0  0  0  0  0  0  0  0  0
    0.2220    0.1020    0.0380 C   0  0  0  0  0  0  0  0  0  0  0  0
    1.6190    0.0110   -0.2850 C   0  0  0  0  0  0  0  0  0  0  0  0
    2.0010   -0.4910   -1.5340 C   0  0  0  0  0  0  0  0  0  0  0  0
    3.2420   -0.6100   -1.9150 O   0  0  0  0  0  0  0  0  0  0  0  0
    4.2610   -0.2740   -1.1700 C   0  0  0  0  0  0  0  0  0  0  0  0
    5.6450   -0.4210   -1.6270 C   0  0  0  0  0  0  0  0  0  0  0  0
    5.8480   -0.8830   -2.7680 O   0  0  0  0  0  0  0  0  0  0  0  0
    6.7210   -0.0680   -0.8460 O   0  0  0  0  0  0  0  0  0  0  0  0
    3.9560    0.2280    0.0750 C   0  0  0  0  0  0  0  0  0  0  0  0
    2.6560    0.3810    0.5410 C   0  0  0  0  0  0  0  0  0  0  0  0
    2.4160    0.8430    1.6810 O   0  0  0  0  0  0  0  0  0  0  0  0
  1  2  1  0
  2  3  1  0
  2  4  1  0
  4  5  1  0
  5  6  2  0
  5  7  1  0
  7  8  2  0
  8  9  1  0
  9 10  2  0
  9 17  1  0
 10 11  1  0
 11 12  1  0
 12 13  1  0
 12 16  2  0
 13 14  2  0
 13 15  1  0
 16 17  1  0
 17 18  2  0
M  END
$$$$
../data/cho_sim50/88700420.pdb
     RDKit          3D

 20 22  0  0  1  0  0  0  0  0999 V2000
    4.5920   -0.1710   -2.9700 O   0  0  0  0  0  0  0  0  0  0  0  0
    4.7150   -0.0340   -1.7350 C   0  0  0  0  0  0  0  0  0  0  0  0
    5.9700    0.1160   -1.2110 O   0  0  0  0  0  0  0  0  0  0  0  0
    3.5350   -0.0310   -0.8470 C   0  0  0  0  0  0  0  0  0  0  0  0
    3.7010    0.1160    0.4460 C   0  0  0  0  0  0  0  0  0  0  0  0
    2.5810    0.1120    1.3730 C   0  0  0  0  0  0  0  0  0  0  0  0
    1.3360   -0.0760    0.8640 C   0  0  0  0  0  0  0  0  0  0  0  0
    0.1800   -0.0580    1.7430 C   0  0  0  0  0  0  0  0  0  0  0  0
   -1.0040    0.0920    1.1770 C   0  0  0  0  0  0  0  0  0  0  0  0
   -2.1580    0.1510    1.9570 C   0  0  0  0  0  0  0  0  0  0  0  0
   -3.4050    0.1730    1.3950 C   0  0  0  0  0  0  0  0  0  0  0  0
   -3.5430    0.1370    0.0330 C   0  0  0  0  0  0  0  0  0  0  0  0
   -4.8620    0.1650   -0.5700 C   0  0  0  0  0  0  0  0  0  0  0  0
   -5.0110    0.1330   -1.8210 O   0  0  0  0  0  0  0  0  0  0  0  0
   -6.0130    0.2300    0.2030 O   0  0  0  0  0  0  0  0  0  0  0  0
   -2.4340    0.0720   -0.7790 C   0  0  0  0  0  0  0  0  0  0  0  0
   -1.1740    0.0450   -0.1900 C   0  0  0  0  0  0  0  0  0  0  0  0
   -0.1740   -0.1790   -1.0370 C   0  0  0  0  0  0  0  0  0  0  0  0
    1.1730   -0.4210   -0.5480 C   0  0  1  0  0  0  0  0  0  0  0  0
    2.2540   -0.1690   -1.3730 O   0  0  0  0  0  0  0  0  0  0  0  0
  1  2  2  0
  2  3  1  0
  2  4  1  0
  4  5  2  0
  4 20  1  0
  5  6  1  0
  6  7  2  0
  7  8  1  0
  7 19  1  0
  8  9  2  0
  9 10  1  0
  9 17  1  0
 10 11  2  0
 11 12  1  0
 12 13  1  0
 12 16  2  0
 13 14  2  0
 13 15  1  0
 16 17  1  0
 17 18  2  0
 18 19  1  0
 19 20  1  6
M  END
$$$$
../data/cho_sim50/88700862.pdb
     RDKit          3D

 20 22  0  0  1  0  0  0  0  0999 V2000
   -5.9510   -0.8870   -0.7320 O   0  0  0  0  0  0  0  0  0  0  0  0
   -5.1010   -0.8440    0.1870 C   0  0  0  0  0  0  0  0  0  0  0  0
   -5.5140   -1.0480    1.4740 O   0  0  0  0  0  0  0  0  0  0  0  0
   -3.7020   -0.5740   -0.1780 C   0  0  0  0  0  0  0  0  0  0  0  0
   -3.3430   -0.3820   -1.4380 C   0  0  0  0  0  0  0  0  0  0  0  0
   -1.9990   -0.1000   -1.8600 C   0  0  0  0  0  0  0  0  0  0  0  0
   -1.0550    0.0010   -0.9360 C   0  0  0  0  0  0  0  0  0  0  0  0
    0.3290    0.2530   -1.2880 C   0  0  0  0  0  0  0  0  0  0  0  0
    1.2760    0.1210   -0.3480 C   0  0  0  0  0  0  0  0  0  0  0  0
    2.6090    0.3310   -0.6730 C   0  0  0  0  0  0  0  0  0  0  0  0
    3.6160    0.3170    0.2570 C   0  0  0  0  0  0  0  0  0  0  0  0
    5.0240    0.5460   -0.1320 C   0  0  0  0  0  0  0  0  0  0  0  0
    5.9460    0.5340    0.7140 O   0  0  0  0  0  0  0  0  0  0  0  0
    5.3640    0.7810   -1.4570 O   0  0  0  0  0  0  0  0  0  0  0  0
    3.2640    0.0830    1.5630 C   0  0  0  0  0  0  0  0  0  0  0  0
    1.9450   -0.1210    1.8960 C   0  0  0  0  0  0  0  0  0  0  0  0
    0.9020   -0.1050    0.9570 C   0  0  0  0  0  0  0  0  0  0  0  0
   -0.3570   -0.1840    1.3770 C   0  0  0  0  0  0  0  0  0  0  0  0
   -1.4730   -0.0030    0.4620 C   0  0  2  0  0  0  0  0  0  0  0  0
   -2.7010   -0.5270    0.7830 O   0  0  0  0  0  0  0  0  0  0  0  0
  1  2  2  0
  2  3  1  0
  2  4  1  0
  4  5  2  0
  4 20  1  0
  5  6  1  0
  6  7  2  0
  7  8  1  0
  7 19  1  0
  8  9  2  0
  9 10  1  0
  9 17  1  0
 10 11  2  0
 11 12  1  0
 11 15  1  0
 12 13  2  0
 12 14  1  0
 15 16  2  0
 16 17  1  0
 17 18  2  0
 18 19  1  0
 19 20  1  6
M  END
$$$$
../data/cho_sim50/89165212.pdb
     RDKit          3D

 14 14  0  0  1  0  0  0  0  0999 V2000
    3.2500   -0.3220    0.4040 C   0  0  0  0  0  0  0  0  0  0  0  0
    2.3540    0.3840   -0.2330 C   0  0  0  0  0  0  0  0  0  0  0  0
    2.5200    1.8190   -0.3390 C   0  0  0  0  0  0  0  0  0  0  0  0
    3.4940    2.4440    0.1540 O   0  0  0  0  0  0  0  0  0  0  0  0
    1.2680   -0.2130   -0.7980 O   0  0  0  0  0  0  0  0  0  0  0  0
    0.1890   -0.7810   -0.0340 C   0  0  1  0  0  0  0  0  0  0  0  0
   -0.4560    0.2140    0.8020 C   0  0  0  0  0  0  0  0  0  0  0  0
   -1.7370    0.4400    0.8000 C   0  0  0  0  0  0  0  0  0  0  0  0
   -2.3010    1.4750    1.6890 C   0  0  0  0  0  0  0  0  0  0  0  0
   -1.5390    2.1140    2.4250 O   0  0  0  0  0  0  0  0  0  0  0  0
   -2.6100   -0.3280   -0.0860 C   0  0  0  0  0  0  0  0  0  0  0  0
   -2.1010   -1.2400   -0.8750 C   0  0  0  0  0  0  0  0  0  0  0  0
   -0.6750   -1.5460   -0.9290 C   0  0  1  0  0  0  0  0  0  0  0  0
   -0.2620   -1.3440   -2.2950 O   0  0  0  0  0  0  0  0  0  0  0  0
  1  2  2  0
  2  3  1  0
  2  5  1  0
  3  4  2  0
  6  5  1  6
  6  7  1  0
  6 13  1  0
  7  8  2  0
  8  9  1  0
  8 11  1  0
  9 10  2  0
 11 12  2  0
 12 13  1  0
 13 14  1  6
M  END
$$$$
../data/cho_sim50/89197328.pdb
     RDKit          3D

 18 18  0  0  1  0  0  0  0  0999 V2000
    1.4690   -2.4690    0.9990 C   0  0  0  0  0  0  0  0  0  0  0  0
    0.8800   -1.2760    1.2050 C   0  0  0  0  0  0  0  0  0  0  0  0
   -0.2250   -1.2550    1.9890 O   0  0  0  0  0  0  0  0  0  0  0  0
   -1.5100   -0.7520    1.7590 C   0  0  1  0  0  0  0  0  0  0  0  0
   -1.5910    0.6770    1.5170 C   0  0  0  0  0  0  0  0  0  0  0  0
   -2.1830    1.2070    0.4810 C   0  0  0  0  0  0  0  0  0  0  0  0
   -2.2100    2.6910    0.3230 C   0  0  0  0  0  0  0  0  0  0  0  0
   -1.6630    3.3880    1.1910 O   0  0  0  0  0  0  0  0  0  0  0  0
   -2.8360    3.2330   -0.7700 O   0  0  0  0  0  0  0  0  0  0  0  0
   -2.8140    0.3670   -0.5130 C   0  0  0  0  0  0  0  0  0  0  0  0
   -2.8050   -0.9290   -0.3970 C   0  0  0  0  0  0  0  0  0  0  0  0
   -2.1660   -1.6020    0.7270 C   0  0  1  0  0  0  0  0  0  0  0  0
   -1.1750   -2.4520    0.1670 O   0  0  0  0  0  0  0  0  0  0  0  0
    1.4680   -0.1080    0.5760 C   0  0  0  0  0  0  0  0  0  0  0  0
    1.0220    1.0510    0.6900 O   0  0  0  0  0  0  0  0  0  0  0  0
    2.6160   -0.2540   -0.2200 O   0  0  0  0  0  0  0  0  0  0  0  0
    3.1730    0.8870   -0.8220 C   0  0  0  0  0  0  0  0  0  0  0  0
    4.3860    0.4710   -1.6170 C   0  0  0  0  0  0  0  0  0  0  0  0
  1  2  2  0
  2  3  1  0
  2 14  1  0
  4  3  1  6
  4  5  1  0
  4 12  1  0
  5  6  2  0
  6  7  1  0
  6 10  1  0
  7  8  2  0
  7  9  1  0
 10 11  2  0
 11 12  1  0
 12 13  1  6
 14 15  2  0
 14 16  1  0
 16 17  1  0
 17 18  1  0
M  END
$$$$
../data/cho_sim50/89936619.pdb
     RDKit          3D

 16 16  0  0  1  0  0  0  0  0999 V2000
    3.6530    0.2890    2.0550 O   0  0  0  0  0  0  0  0  0  0  0  0
    3.7080    0.7840    0.9100 C   0  0  0  0  0  0  0  0  0  0  0  0
    4.8450    1.4520    0.5160 O   0  0  0  0  0  0  0  0  0  0  0  0
    2.5660    0.6370    0.0260 C   0  0  0  0  0  0  0  0  0  0  0  0
    2.6420    1.1500   -1.1420 O   0  0  0  0  0  0  0  0  0  0  0  0
    1.4090   -0.0240    0.3790 O   0  0  0  0  0  0  0  0  0  0  0  0
    0.3300   -0.1240   -0.5510 C   0  0  2  0  0  0  0  0  0  0  0  0
   -0.8350    0.6130   -0.0380 C   0  0  0  0  0  0  0  0  0  0  0  0
   -2.0610    0.1230    0.0930 C   0  0  0  0  0  0  0  0  0  0  0  0
   -3.1480    0.9450    0.6140 C   0  0  0  0  0  0  0  0  0  0  0  0
   -4.2810    0.4310    0.7150 O   0  0  0  0  0  0  0  0  0  0  0  0
   -2.9910    2.2620    1.0020 O   0  0  0  0  0  0  0  0  0  0  0  0
   -2.3140   -1.2520   -0.2910 C   0  0  0  0  0  0  0  0  0  0  0  0
   -1.3430   -1.9890   -0.7570 C   0  0  0  0  0  0  0  0  0  0  0  0
    0.0350   -1.5260   -0.9320 C   0  0  1  0  0  0  0  0  0  0  0  0
    0.3440   -1.7650   -2.2980 O   0  0  0  0  0  0  0  0  0  0  0  0
  1  2  2  0
  2  3  1  0
  2  4  1  0
  4  5  2  0
  4  6  1  0
  7  6  1  1
  7  8  1  0
  7 15  1  0
  8  9  2  0
  9 10  1  0
  9 13  1  0
 10 11  2  0
 10 12  1  0
 13 14  2  0
 14 15  1  0
 15 16  1  6
M  END
$$$$
../data/cho_sim50/90145918.pdb
     RDKit          3D

 18 18  0  0  1  0  0  0  0  0999 V2000
    3.4480   -0.4850    2.6700 C   0  0  0  0  0  0  0  0  0  0  0  0
    2.8060    0.5760    2.1560 C   0  0  0  0  0  0  0  0  0  0  0  0
    1.4720    0.5140    1.8130 O   0  0  0  0  0  0  0  0  0  0  0  0
    0.9880    1.0020    0.5560 C   0  0  2  0  0  0  0  0  0  0  0  0
   -0.4560    0.8000    0.4780 C   0  0  0  0  0  0  0  0  0  0  0  0
   -1.0160    0.1240   -0.4970 C   0  0  0  0  0  0  0  0  0  0  0  0
   -2.4840   -0.0630   -0.5470 C   0  0  0  0  0  0  0  0  0  0  0  0
   -3.2190    0.4270    0.3500 O   0  0  0  0  0  0  0  0  0  0  0  0
   -3.1000   -0.7720   -1.5650 O   0  0  0  0  0  0  0  0  0  0  0  0
   -4.5010   -0.9660   -1.6380 C   0  0  0  0  0  0  0  0  0  0  0  0
   -4.9670   -1.6930   -0.4190 C   0  0  0  0  0  0  0  0  0  0  0  0
   -0.2490   -0.4780   -1.5750 C   0  0  0  0  0  0  0  0  0  0  0  0
    1.0440   -0.3340   -1.5600 C   0  0  0  0  0  0  0  0  0  0  0  0
    1.8010    0.3990   -0.5280 C   0  0  2  0  0  0  0  0  0  0  0  0
    2.8210   -0.4100   -0.0080 O   0  0  0  0  0  0  0  0  0  0  0  0
    3.5970    1.7870    1.9830 C   0  0  0  0  0  0  0  0  0  0  0  0
    3.1290    2.8620    1.5130 O   0  0  0  0  0  0  0  0  0  0  0  0
    4.9520    1.8380    2.3340 O   0  0  0  0  0  0  0  0  0  0  0  0
  1  2  2  0
  2  3  1  0
  2 16  1  0
  4  3  1  1
  4  5  1  0
  4 14  1  0
  5  6  2  0
  6  7  1  0
  6 12  1  0
  7  8  2  0
  7  9  1  0
  9 10  1  0
 10 11  1  0
 12 13  2  0
 13 14  1  0
 14 15  1  1
 16 17  2  0
 16 18  1  0
M  END
$$$$
../data/cho_sim50/90473446.pdb
     RDKit          3D

 16 16  0  0  1  0  0  0  0  0999 V2000
   -2.8310   -1.6040   -0.6180 C   0  0  0  0  0  0  0  0  0  0  0  0
   -2.3190   -0.3950   -0.7320 C   0  0  0  0  0  0  0  0  0  0  0  0
   -0.9880   -0.2480   -1.0820 O   0  0  0  0  0  0  0  0  0  0  0  0
   -0.1000    0.3820   -0.1520 C   0  0  2  0  0  0  0  0  0  0  0  0
    1.2110    0.4030   -0.7670 C   0  0  0  0  0  0  0  0  0  0  0  0
    2.2930   -0.0700   -0.2060 C   0  0  0  0  0  0  0  0  0  0  0  0
    3.5960   -0.0020   -0.9190 C   0  0  0  0  0  0  0  0  0  0  0  0
    4.6580   -0.4430   -0.4190 O   0  0  0  0  0  0  0  0  0  0  0  0
    3.6490    0.5650   -2.1790 O   0  0  0  0  0  0  0  0  0  0  0  0
    2.2390   -0.6630    1.1100 C   0  0  0  0  0  0  0  0  0  0  0  0
    1.0910   -0.7280    1.7470 C   0  0  0  0  0  0  0  0  0  0  0  0
   -0.1710   -0.2220    1.1910 C   0  0  1  0  0  0  0  0  0  0  0  0
   -0.6730    0.7000    2.1410 O   0  0  0  0  0  0  0  0  0  0  0  0
   -3.1610    0.7890   -0.4880 C   0  0  0  0  0  0  0  0  0  0  0  0
   -4.3650    0.6870   -0.1710 O   0  0  0  0  0  0  0  0  0  0  0  0
   -2.6170    2.0600   -0.6090 O   0  0  0  0  0  0  0  0  0  0  0  0
  1  2  2  0
  2  3  1  0
  2 14  1  0
  4  3  1  6
  4  5  1  0
  4 12  1  0
  5  6  2  0
  6  7  1  0
  6 10  1  0
  7  8  2  0
  7  9  1  0
 10 11  2  0
 11 12  1  0
 12 13  1  1
 14 15  2  0
 14 16  1  0
M  END
$$$$
../data/cho_sim50/101035447.pdb
     RDKit          3D

 16 16  0  0  1  0  0  0  0  0999 V2000
   -2.1720   -0.6490   -1.9710 C   0  0  0  0  0  0  0  0  0  0  0  0
   -2.1380   -0.3890   -0.6860 C   0  0  0  0  0  0  0  0  0  0  0  0
   -1.2280   -1.0850    0.0920 O   0  0  0  0  0  0  0  0  0  0  0  0
   -0.2250   -0.3130    0.7720 C   0  0  2  0  0  0  0  0  0  0  0  0
    0.5270    0.3850   -0.2970 C   0  0  0  0  0  0  0  0  0  0  0  0
    1.8290    0.2880   -0.4460 C   0  0  0  0  0  0  0  0  0  0  0  0
    2.4580    1.0310   -1.5470 C   0  0  0  0  0  0  0  0  0  0  0  0
    3.7030    0.9670   -1.7280 O   0  0  0  0  0  0  0  0  0  0  0  0
    1.6910    1.8050   -2.3940 O   0  0  0  0  0  0  0  0  0  0  0  0
    2.6240   -0.5300    0.4510 C   0  0  0  0  0  0  0  0  0  0  0  0
    2.0330   -1.1830    1.4270 C   0  0  0  0  0  0  0  0  0  0  0  0
    0.5930   -1.1470    1.6850 C   0  0  1  0  0  0  0  0  0  0  0  0
    0.4230   -0.7230    3.0260 O   0  0  0  0  0  0  0  0  0  0  0  0
   -3.0360    0.5990   -0.1410 C   0  0  0  0  0  0  0  0  0  0  0  0
   -3.8430    1.2060   -0.8740 O   0  0  0  0  0  0  0  0  0  0  0  0
   -3.0190    0.8910    1.2100 O   0  0  0  0  0  0  0  0  0  0  0  0
  1  2  2  0
  2  3  1  0
  2 14  1  0
  4  3  1  6
  4  5  1  0
  4 12  1  0
  5  6  2  0
  6  7  1  0
  6 10  1  0
  7  8  2  0
  7  9  1  0
 10 11  2  0
 11 12  1  0
 12 13  1  1
 14 15  2  0
 14 16  1  0
M  END
$$$$
../data/cho_sim50/101072171.pdb
     RDKit          3D

 16 16  0  0  1  0  0  0  0  0999 V2000
    3.3070    0.8150    0.5790 C   0  0  0  0  0  0  0  0  0  0  0  0
    2.0570    0.8950    1.0030 C   0  0  0  0  0  0  0  0  0  0  0  0
    1.2790   -0.2380    1.2080 O   0  0  0  0  0  0  0  0  0  0  0  0
    0.5820   -0.8140    0.0730 C   0  0  2  0  0  0  0  0  0  0  0  0
   -0.3370    0.1550   -0.4940 C   0  0  0  0  0  0  0  0  0  0  0  0
   -1.6030   -0.0980   -0.7060 C   0  0  0  0  0  0  0  0  0  0  0  0
   -2.4780    0.9280   -1.2820 C   0  0  0  0  0  0  0  0  0  0  0  0
   -3.6790    0.6590   -1.4730 O   0  0  0  0  0  0  0  0  0  0  0  0
   -1.9540    2.1780   -1.6050 O   0  0  0  0  0  0  0  0  0  0  0  0
   -2.1600   -1.4030   -0.3690 C   0  0  0  0  0  0  0  0  0  0  0  0
   -1.3910   -2.3200    0.1460 C   0  0  0  0  0  0  0  0  0  0  0  0
    0.0190   -2.1260    0.4140 C   0  0  1  0  0  0  0  0  0  0  0  0
    0.8000   -3.1630   -0.1790 O   0  0  0  0  0  0  0  0  0  0  0  0
    1.4950    2.2080    1.2570 C   0  0  0  0  0  0  0  0  0  0  0  0
    2.1760    3.2280    1.0790 O   0  0  0  0  0  0  0  0  0  0  0  0
    0.1740    2.3440    1.7070 O   0  0  0  0  0  0  0  0  0  0  0  0
  1  2  2  0
  2  3  1  0
  2 14  1  0
  4  3  1  1
  4  5  1  0
  4 12  1  0
  5  6  2  0
  6  7  1  0
  6 10  1  0
  7  8  2  0
  7  9  1  0
 10 11  2  0
 11 12  1  0
 12 13  1  6
 14 15  2  0
 14 16  1  0
M  END
$$$$
../data/cho_sim50/101931542.pdb
     RDKit          3D

 17 17  0  0  1  0  0  0  0  0999 V2000
    1.9640    0.8530   -2.4260 C   0  0  0  0  0  0  0  0  0  0  0  0
    2.1290    0.3750   -1.2160 C   0  0  0  0  0  0  0  0  0  0  0  0
    1.3950    0.8870   -0.1800 O   0  0  0  0  0  0  0  0  0  0  0  0
    0.4690    0.1010    0.5870 C   0  0  2  0  0  0  0  0  0  0  0  0
   -0.5850   -0.4520   -0.2520 C   0  0  0  0  0  0  0  0  0  0  0  0
   -0.2350   -1.2130   -1.3560 F   0  0  0  0  0  0  0  0  0  0  0  0
   -1.8770   -0.3090   -0.0780 C   0  0  0  0  0  0  0  0  0  0  0  0
   -2.8610   -0.8980   -0.9660 C   0  0  0  0  0  0  0  0  0  0  0  0
   -2.4920   -1.5840   -1.9610 O   0  0  0  0  0  0  0  0  0  0  0  0
   -4.2180   -0.7170   -0.7400 O   0  0  0  0  0  0  0  0  0  0  0  0
   -2.3070    0.4820    1.0580 C   0  0  0  0  0  0  0  0  0  0  0  0
   -1.4390    1.0260    1.8680 C   0  0  0  0  0  0  0  0  0  0  0  0
    0.0030    0.9000    1.7210 C   0  0  1  0  0  0  0  0  0  0  0  0
    0.5480    0.4330    2.9550 O   0  0  0  0  0  0  0  0  0  0  0  0
    3.0820   -0.6920   -0.9610 C   0  0  0  0  0  0  0  0  0  0  0  0
    3.7610   -1.1660   -1.9190 O   0  0  0  0  0  0  0  0  0  0  0  0
    3.2990   -1.2340    0.2840 O   0  0  0  0  0  0  0  0  0  0  0  0
  1  2  2  0
  2  3  1  0
  2 15  1  0
  4  3  1  6
  4  5  1  0
  4 13  1  0
  5  6  1  0
  5  7  2  0
  7  8  1  0
  7 11  1  0
  8  9  2  0
  8 10  1  0
 11 12  2  0
 12 13  1  0
 13 14  1  1
 15 16  2  0
 15 17  1  0
M  END
$$$$
../data/cho_sim50/102515144.pdb
     RDKit          3D

 14 14  0  0  0  0  0  0  0  0999 V2000
   -4.7600    1.3180   -0.7310 O   0  0  0  0  0  0  0  0  0  0  0  0
   -4.0610    0.3000   -0.6490 C   0  0  0  0  0  0  0  0  0  0  0  0
   -4.7240   -0.9230   -0.8030 O   0  0  0  0  0  0  0  0  0  0  0  0
   -2.6450    0.3960   -0.4060 C   0  0  0  0  0  0  0  0  0  0  0  0
   -1.8710   -0.7560   -0.3160 C   0  0  0  0  0  0  0  0  0  0  0  0
   -0.4980   -0.6680   -0.0800 C   0  0  0  0  0  0  0  0  0  0  0  0
    0.0220    0.5980    0.0520 C   0  0  0  0  0  0  0  0  0  0  0  0
    1.4370    0.8220    0.2990 C   0  0  0  0  0  0  0  0  0  0  0  0
    2.3520   -0.1080    0.4210 C   0  0  0  0  0  0  0  0  0  0  0  0
    3.7830    0.1590    0.6720 C   0  0  0  0  0  0  0  0  0  0  0  0
    4.5900   -0.3530   -0.3620 O   0  0  0  0  0  0  0  0  0  0  0  0
   -0.8080    1.6930   -0.0500 C   0  0  0  0  0  0  0  0  0  0  0  0
   -0.3240    2.8710    0.0730 O   0  0  0  0  0  0  0  0  0  0  0  0
   -2.0930    1.5750   -0.2710 O   0  0  0  0  0  0  0  0  0  0  0  0
  1  2  2  0
  2  3  1  0
  2  4  1  0
  4  5  2  0
  4 14  1  0
  5  6  1  0
  6  7  2  0
  7  8  1  0
  7 12  1  0
  8  9  2  0
  9 10  1  0
 10 11  1  0
 12 13  2  0
 12 14  1  0
M  END
$$$$
../data/cho_sim50/102515145.pdb
     RDKit          3D

 14 14  0  0  0  0  0  0  0  0999 V2000
   -4.6710   -1.1130   -0.4550 O   0  0  0  0  0  0  0  0  0  0  0  0
   -4.1040   -0.1310    0.0770 C   0  0  0  0  0  0  0  0  0  0  0  0
   -4.8650    0.8760    0.6290 O   0  0  0  0  0  0  0  0  0  0  0  0
   -2.6470   -0.0260    0.1280 C   0  0  0  0  0  0  0  0  0  0  0  0
   -1.8580   -1.0260   -0.4200 C   0  0  0  0  0  0  0  0  0  0  0  0
   -0.4610   -0.9150   -0.3650 C   0  0  0  0  0  0  0  0  0  0  0  0
    0.1180    0.1730    0.2250 C   0  0  0  0  0  0  0  0  0  0  0  0
    1.5560    0.3400    0.3090 C   0  0  0  0  0  0  0  0  0  0  0  0
    2.4320   -0.5280   -0.1670 C   0  0  0  0  0  0  0  0  0  0  0  0
    3.9140   -0.3150   -0.0570 C   0  0  0  0  0  0  0  0  0  0  0  0
    4.1400    0.9070    0.6070 O   0  0  0  0  0  0  0  0  0  0  0  0
   -0.7260    1.1270    0.7480 C   0  0  0  0  0  0  0  0  0  0  0  0
   -0.1830    2.1300    1.2910 O   0  0  0  0  0  0  0  0  0  0  0  0
   -2.0360    0.9930    0.6800 O   0  0  0  0  0  0  0  0  0  0  0  0
  1  2  2  0
  2  3  1  0
  2  4  1  0
  4  5  2  0
  4 14  1  0
  5  6  1  0
  6  7  2  0
  7  8  1  0
  7 12  1  0
  8  9  2  0
  9 10  1  0
 10 11  1  0
 12 13  2  0
 12 14  1  0
M  END
$$$$
../data/cho_sim50/118797439.pdb
     RDKit          3D

 16 16  0  0  1  0  0  0  0  0999 V2000
    2.7040   -0.4990   -0.9700 C   0  0  0  0  0  0  0  0  0  0  0  0
    2.3510    0.2400    0.0510 C   0  0  0  0  0  0  0  0  0  0  0  0
    1.2030    1.0090    0.0110 O   0  0  0  0  0  0  0  0  0  0  0  0
    0.1120    0.7520   -0.8360 C   0  0  1  0  0  0  0  0  0  0  0  0
   -0.3980   -0.5900   -0.5150 C   0  0  0  0  0  0  0  0  0  0  0  0
   -1.6440   -0.8910   -0.2150 C   0  0  0  0  0  0  0  0  0  0  0  0
   -2.0520   -2.2570    0.0890 C   0  0  0  0  0  0  0  0  0  0  0  0
   -1.2210   -3.2200    0.0790 O   0  0  0  0  0  0  0  0  0  0  0  0
   -3.3580   -2.5940    0.4070 O   0  0  0  0  0  0  0  0  0  0  0  0
   -2.6380    0.1610   -0.1850 C   0  0  0  0  0  0  0  0  0  0  0  0
   -2.2800    1.3900   -0.4570 C   0  0  0  0  0  0  0  0  0  0  0  0
   -0.9200    1.8300   -0.8020 C   0  0  1  0  0  0  0  0  0  0  0  0
   -0.5490    2.7790    0.1770 O   0  0  0  0  0  0  0  0  0  0  0  0
    3.1750    0.2580    1.2520 C   0  0  0  0  0  0  0  0  0  0  0  0
    2.8380    0.9660    2.2330 O   0  0  0  0  0  0  0  0  0  0  0  0
    4.3400   -0.4870    1.3660 O   0  0  0  0  0  0  0  0  0  0  0  0
  1  2  2  0
  2  3  1  0
  2 14  1  0
  4  3  1  1
  4  5  1  0
  4 12  1  0
  5  6  2  0
  6  7  1  0
  6 10  1  0
  7  8  2  0
  7  9  1  0
 10 11  2  0
 11 12  1  0
 12 13  1  1
 14 15  2  0
 14 16  1  0
M  END
$$$$
../data/cho_sim50/138623598.pdb
     RDKit          3D

 12 12  0  0  1  0  0  0  0  0999 V2000
   -2.5960    1.4990    1.0370 C   0  0  0  0  0  0  0  0  0  0  0  0
   -1.2970    1.5630    0.6170 O   0  0  0  0  0  0  0  0  0  0  0  0
   -0.8150    0.3790    0.0310 C   0  0  2  0  0  0  0  0  0  0  0  0
    0.2100   -0.2580    0.8480 C   0  0  0  0  0  0  0  0  0  0  0  0
    1.3440   -0.6780    0.3460 C   0  0  0  0  0  0  0  0  0  0  0  0
    2.3530   -1.3210    1.2250 C   0  0  0  0  0  0  0  0  0  0  0  0
    2.1200   -1.4600    2.4370 O   0  0  0  0  0  0  0  0  0  0  0  0
    3.5430   -1.7610    0.6990 O   0  0  0  0  0  0  0  0  0  0  0  0
    1.6280   -0.5220   -1.0640 C   0  0  0  0  0  0  0  0  0  0  0  0
    0.7670    0.0400   -1.8760 C   0  0  0  0  0  0  0  0  0  0  0  0
   -0.5380    0.5480   -1.4190 C   0  0  1  0  0  0  0  0  0  0  0  0
   -1.4960   -0.1380   -2.2190 O   0  0  0  0  0  0  0  0  0  0  0  0
  1  2  1  0
  3  2  1  1
  3  4  1  0
  3 11  1  0
  4  5  2  0
  5  6  1  0
  5  9  1  0
  6  7  2  0
  6  8  1  0
  9 10  2  0
 10 11  1  0
 11 12  1  6
M  END
$$$$
../data/cho_sim50/139992404.pdb
     RDKit          3D

 15 15  0  0  1  0  0  0  0  0999 V2000
   -2.0340   -2.5980   -0.6830 O   0  0  0  0  0  0  0  0  0  0  0  0
   -2.0810   -1.3650   -0.2960 C   0  0  0  0  0  0  0  0  0  0  0  0
   -3.3440   -0.8910   -0.2820 O   0  0  0  0  0  0  0  0  0  0  0  0
   -0.8220   -0.7340    0.0390 C   0  0  0  0  0  0  0  0  0  0  0  0
   -0.7110    0.5030    0.4440 C   0  0  0  0  0  0  0  0  0  0  0  0
   -1.7970    1.4340    0.6230 C   0  0  0  0  0  0  0  0  0  0  0  0
   -1.5090    2.6190    1.0300 O   0  0  0  0  0  0  0  0  0  0  0  0
   -3.1320    1.2470    0.4200 O   0  0  0  0  0  0  0  0  0  0  0  0
    0.5800    0.9860    0.7360 O   0  0  0  0  0  0  0  0  0  0  0  0
    1.7750    0.3140    0.6510 C   0  0  2  0  0  0  0  0  0  0  0  0
    2.7470    0.9940   -0.2750 C   0  0  0  0  0  0  0  0  0  0  0  0
    2.4050    2.0530   -0.8570 O   0  0  0  0  0  0  0  0  0  0  0  0
    4.0160    0.4990   -0.5180 O   0  0  0  0  0  0  0  0  0  0  0  0
    1.6110   -1.0760    0.1930 C   0  0  0  0  0  0  0  0  0  0  0  0
    0.4170   -1.5370   -0.0820 C   0  0  0  0  0  0  0  0  0  0  0  0
  1  2  2  0
  2  3  1  0
  2  4  1  0
  4  5  2  0
  4 15  1  0
  5  6  1  0
  5  9  1  0
  6  7  2  0
  6  8  1  0
  9 10  1  0
 10 11  1  6
 10 14  1  0
 11 12  2  0
 11 13  1  0
 14 15  2  0
M  END
$$$$
../data/cho_sim50/141076116.pdb
     RDKit          3D

 20 20  0  0  1  0  0  0  0  0999 V2000
   -2.5200    2.9740   -0.1890 O   0  0  0  0  0  0  0  0  0  0  0  0
   -2.8570    1.9140    0.3630 C   0  0  0  0  0  0  0  0  0  0  0  0
   -3.2100    0.6160    0.4010 C   0  0  0  0  0  0  0  0  0  0  0  0
   -4.6190    0.2780    0.3800 C   0  0  0  0  0  0  0  0  0  0  0  0
   -5.0300   -0.9790    0.4160 C   0  0  0  0  0  0  0  0  0  0  0  0
   -4.0080   -2.0190    0.4760 C   0  0  0  0  0  0  0  0  0  0  0  0
   -2.7200   -1.7790    0.4970 C   0  0  0  0  0  0  0  0  0  0  0  0
   -2.1820   -0.4140    0.4610 C   0  0  1  0  0  0  0  0  0  0  0  0
   -1.3220   -0.3630   -0.6940 O   0  0  0  0  0  0  0  0  0  0  0  0
    0.0080   -0.0730   -0.4940 C   0  0  0  0  0  0  0  0  0  0  0  0
    0.3890    0.1290    0.6830 O   0  0  0  0  0  0  0  0  0  0  0  0
    0.9820    0.0020   -1.6450 C   0  0  0  0  0  0  0  0  0  0  0  0
    2.2330    0.3110   -1.1150 O   0  0  0  0  0  0  0  0  0  0  0  0
    2.6120    1.3830   -0.4100 C   0  0  0  0  0  0  0  0  0  0  0  0
    1.6840    2.2530   -0.1910 O   0  0  0  0  0  0  0  0  0  0  0  0
    3.9200    1.6440    0.1100 C   0  0  0  0  0  0  0  0  0  0  0  0
    4.9810    0.9130    0.0070 C   0  0  0  0  0  0  0  0  0  0  0  0
    5.0340   -0.3380   -0.6750 C   0  0  0  0  0  0  0  0  0  0  0  0
    6.1840   -0.9150   -0.6660 O   0  0  0  0  0  0  0  0  0  0  0  0
    4.0700   -1.0150   -1.3270 O   0  0  0  0  0  0  0  0  0  0  0  0
  1  2  2  0
  2  3  2  0
  3  4  1  0
  3  8  1  0
  4  5  2  0
  5  6  1  0
  6  7  2  0
  7  8  1  0
  8  9  1  6
  9 10  1  0
 10 11  2  0
 10 12  1  0
 12 13  1  0
 13 14  1  0
 14 15  2  0
 14 16  1  0
 16 17  2  0
 17 18  1  0
 18 19  2  0
 18 20  1  0
M  END
$$$$
../data/cho_sim50/141076156.pdb
     RDKit          3D

 20 20  0  0  1  0  0  0  0  0999 V2000
   -2.8680   -2.2970   -1.7100 O   0  0  0  0  0  0  0  0  0  0  0  0
   -3.1510   -1.2890   -1.0570 C   0  0  0  0  0  0  0  0  0  0  0  0
   -3.5540   -0.2880   -0.3280 C   0  0  0  0  0  0  0  0  0  0  0  0
   -4.9690   -0.1020   -0.0730 C   0  0  0  0  0  0  0  0  0  0  0  0
   -5.3990    0.9050    0.6620 C   0  0  0  0  0  0  0  0  0  0  0  0
   -4.4310    1.8260    1.2130 C   0  0  0  0  0  0  0  0  0  0  0  0
   -3.1310    1.7210    1.0250 C   0  0  0  0  0  0  0  0  0  0  0  0
   -2.5540    0.6340    0.2210 C   0  0  1  0  0  0  0  0  0  0  0  0
   -1.5430   -0.0230    0.9570 O   0  0  0  0  0  0  0  0  0  0  0  0
   -0.2170   -0.0160    0.5710 C   0  0  0  0  0  0  0  0  0  0  0  0
    0.0840    0.6030   -0.4790 O   0  0  0  0  0  0  0  0  0  0  0  0
    0.8130   -0.7360    1.4010 C   0  0  0  0  0  0  0  0  0  0  0  0
    2.0850   -0.6140    0.8500 O   0  0  0  0  0  0  0  0  0  0  0  0
    2.4740   -1.0390   -0.4000 C   0  0  0  0  0  0  0  0  0  0  0  0
    1.6110   -1.5900   -1.1240 O   0  0  0  0  0  0  0  0  0  0  0  0
    3.8190   -0.8860   -0.9270 C   0  0  0  0  0  0  0  0  0  0  0  0
    4.8000   -0.3190   -0.2440 C   0  0  0  0  0  0  0  0  0  0  0  0
    6.1120   -0.2100   -0.8520 C   0  0  0  0  0  0  0  0  0  0  0  0
    6.3340   -0.6430   -2.0110 O   0  0  0  0  0  0  0  0  0  0  0  0
    7.1800    0.3780   -0.1780 O   0  0  0  0  0  0  0  0  0  0  0  0
  1  2  2  0
  2  3  2  0
  3  4  1  0
  3  8  1  0
  4  5  2  0
  5  6  1  0
  6  7  2  0
  7  8  1  0
  8  9  1  1
  9 10  1  0
 10 11  2  0
 10 12  1  0
 12 13  1  0
 13 14  1  0
 14 15  2  0
 14 16  1  0
 16 17  2  0
 17 18  1  0
 18 19  2  0
 18 20  1  0
M  END
$$$$
../data/cho_sim50/142110891.pdb
     RDKit          3D

 18 18  0  0  1  0  0  0  0  0999 V2000
    2.6610    3.0270   -0.9470 O   0  0  0  0  0  0  0  0  0  0  0  0
    2.9820    1.8360   -0.7830 C   0  0  0  0  0  0  0  0  0  0  0  0
    4.3060    1.4940   -1.0710 O   0  0  0  0  0  0  0  0  0  0  0  0
    2.0310    0.8600   -0.3170 C   0  0  0  0  0  0  0  0  0  0  0  0
    0.7910    1.2340   -0.0580 C   0  0  0  0  0  0  0  0  0  0  0  0
   -0.2280    0.3100    0.4150 C   0  0  1  0  0  0  0  0  0  0  0  0
   -1.3300    0.4170   -0.5120 O   0  0  0  0  0  0  0  0  0  0  0  0
   -2.4750   -0.3270   -0.3640 C   0  0  0  0  0  0  0  0  0  0  0  0
   -3.3860   -0.0510    0.7190 C   0  0  0  0  0  0  0  0  0  0  0  0
   -4.4460   -0.7250    0.8720 O   0  0  0  0  0  0  0  0  0  0  0  0
   -3.1520    0.9610    1.6470 O   0  0  0  0  0  0  0  0  0  0  0  0
   -2.7350   -1.2880   -1.2130 C   0  0  0  0  0  0  0  0  0  0  0  0
   -3.8630   -2.0350   -1.0860 F   0  0  0  0  0  0  0  0  0  0  0  0
   -1.8900   -1.5730   -2.2520 F   0  0  0  0  0  0  0  0  0  0  0  0
    0.2050   -1.0770    0.5890 C   0  0  2  0  0  0  0  0  0  0  0  0
   -0.0440   -1.4620    1.9320 O   0  0  0  0  0  0  0  0  0  0  0  0
    1.5880   -1.4080    0.2830 C   0  0  0  0  0  0  0  0  0  0  0  0
    2.4480   -0.5210   -0.1390 C   0  0  0  0  0  0  0  0  0  0  0  0
  1  2  2  0
  2  3  1  0
  2  4  1  0
  4  5  2  0
  4 18  1  0
  5  6  1  0
  6  7  1  6
  6 15  1  0
  7  8  1  0
  8  9  1  0
  8 12  2  0
  9 10  2  0
  9 11  1  0
 12 13  1  0
 12 14  1  0
 15 16  1  1
 15 17  1  0
 17 18  2  0
M  END
$$$$
../data/cho_sim50/144590668.pdb
     RDKit          3D

 13 13  0  0  1  0  0  0  0  0999 V2000
    4.6090    0.0800    0.5960 C   0  0  0  0  0  0  0  0  0  0  0  0
    3.3010   -0.4250    0.3810 O   0  0  0  0  0  0  0  0  0  0  0  0
    2.2580    0.4480    0.2310 C   0  0  0  0  0  0  0  0  0  0  0  0
    2.4500    1.6710    0.2830 O   0  0  0  0  0  0  0  0  0  0  0  0
    0.8920   -0.0880    0.0050 C   0  0  0  0  0  0  0  0  0  0  0  0
   -0.1190    0.7340   -0.1400 C   0  0  0  0  0  0  0  0  0  0  0  0
   -1.4790    0.3070   -0.3630 C   0  0  2  0  0  0  0  0  0  0  0  0
   -2.4040    0.9400    0.4770 O   0  0  0  0  0  0  0  0  0  0  0  0
   -3.2850    1.7680   -0.1490 C   0  0  0  0  0  0  0  0  0  0  0  0
   -1.7120   -1.1450   -0.4170 C   0  0  1  0  0  0  0  0  0  0  0  0
   -2.2910   -1.5610   -1.6350 O   0  0  0  0  0  0  0  0  0  0  0  0
   -0.5240   -1.9880   -0.2450 C   0  0  0  0  0  0  0  0  0  0  0  0
    0.6800   -1.5240   -0.0500 C   0  0  0  0  0  0  0  0  0  0  0  0
  1  2  1  0
  2  3  1  0
  3  4  2  0
  3  5  1  0
  5  6  2  0
  5 13  1  0
  6  7  1  0
  7  8  1  1
  7 10  1  0
  8  9  1  0
 10 11  1  6
 10 12  1  0
 12 13  2  0
M  END
$$$$
../data/cho_sim50/146226013.pdb
     RDKit          3D

 16 16  0  0  1  0  0  0  0  0999 V2000
    4.7830    1.1190    0.5510 C   0  0  0  0  0  0  0  0  0  0  0  0
    3.9680   -0.1400    0.4690 C   0  0  1  0  0  0  0  0  0  0  0  0
    2.6600    0.0700    0.0040 O   0  0  0  0  0  0  0  0  0  0  0  0
    1.5180   -0.2070    0.6880 C   0  0  0  0  0  0  0  0  0  0  0  0
    1.5790   -0.6900    1.8340 O   0  0  0  0  0  0  0  0  0  0  0  0
    0.2040    0.0510    0.1080 C   0  0  0  0  0  0  0  0  0  0  0  0
   -0.9030   -0.2170    0.7720 C   0  0  0  0  0  0  0  0  0  0  0  0
   -2.2470    0.0140    0.2580 C   0  0  0  0  0  0  0  0  0  0  0  0
   -3.2760   -0.2970    1.0210 C   0  0  0  0  0  0  0  0  0  0  0  0
   -4.6680   -0.1330    0.6670 C   0  0  0  0  0  0  0  0  0  0  0  0
   -4.9320    0.4250   -0.6650 C   0  0  0  0  0  0  0  0  0  0  0  0
   -3.7520    0.7470   -1.4560 C   0  0  0  0  0  0  0  0  0  0  0  0
   -2.5220    0.5650   -1.0490 C   0  0  0  0  0  0  0  0  0  0  0  0
    4.7160   -1.1140   -0.3650 C   0  0  0  0  0  0  0  0  0  0  0  0
    5.8910   -1.3890   -0.0570 O   0  0  0  0  0  0  0  0  0  0  0  0
    4.0720   -1.6770   -1.4510 O   0  0  0  0  0  0  0  0  0  0  0  0
  2  1  1  6
  2  3  1  0
  2 14  1  0
  3  4  1  0
  4  5  2  0
  4  6  1  0
  6  7  2  0
  7  8  1  0
  8  9  2  0
  8 13  1  0
  9 10  1  0
 10 11  1  0
 11 12  1  0
 12 13  2  0
 14 15  2  0
 14 16  1  0
M  END
$$$$
../data/cho_sim50/146226015.pdb
     RDKit          3D

 16 16  0  0  1  0  0  0  0  0999 V2000
    4.6820   -0.7240    1.3040 C   0  0  0  0  0  0  0  0  0  0  0  0
    3.9760   -0.2510    0.0520 C   0  0  1  0  0  0  0  0  0  0  0  0
    2.6320    0.0580    0.2670 O   0  0  0  0  0  0  0  0  0  0  0  0
    1.5650   -0.5150   -0.3690 C   0  0  0  0  0  0  0  0  0  0  0  0
    1.7790   -1.3980   -1.2250 O   0  0  0  0  0  0  0  0  0  0  0  0
    0.1990   -0.1240   -0.0740 C   0  0  0  0  0  0  0  0  0  0  0  0
   -0.8450   -0.6590   -0.6710 C   0  0  0  0  0  0  0  0  0  0  0  0
   -2.2160   -0.2920   -0.4000 C   0  0  0  0  0  0  0  0  0  0  0  0
   -3.1800   -0.9120   -1.0760 C   0  0  0  0  0  0  0  0  0  0  0  0
   -4.6120   -0.6460   -0.9090 C   0  0  0  0  0  0  0  0  0  0  0  0
   -4.9320    0.3920    0.0960 C   0  0  0  0  0  0  0  0  0  0  0  0
   -3.8150    1.0280    0.7970 C   0  0  0  0  0  0  0  0  0  0  0  0
   -2.5690    0.7210    0.5760 C   0  0  0  0  0  0  0  0  0  0  0  0
    4.6590    1.0000   -0.3860 C   0  0  0  0  0  0  0  0  0  0  0  0
    5.8860    0.9270   -0.6310 O   0  0  0  0  0  0  0  0  0  0  0  0
    3.9840    2.2070   -0.5250 O   0  0  0  0  0  0  0  0  0  0  0  0
  2  1  1  1
  2  3  1  0
  2 14  1  0
  3  4  1  0
  4  5  2  0
  4  6  1  0
  6  7  2  0
  7  8  1  0
  8  9  2  0
  8 13  1  0
  9 10  1  0
 10 11  1  0
 11 12  1  0
 12 13  2  0
 14 15  2  0
 14 16  1  0
M  END
$$$$
../data/cho_sim50/150972446.pdb
     RDKit          3D

 12 12  0  0  1  0  0  0  0  0999 V2000
    3.2960   -0.9360    0.2710 O   0  0  0  0  0  0  0  0  0  0  0  0
    2.4560   -0.1910   -0.2900 C   0  0  0  0  0  0  0  0  0  0  0  0
    2.9310    0.8720   -1.0390 O   0  0  0  0  0  0  0  0  0  0  0  0
    1.0100   -0.4570   -0.1450 C   0  0  0  0  0  0  0  0  0  0  0  0
    0.1040    0.2990   -0.7170 C   0  0  0  0  0  0  0  0  0  0  0  0
   -1.3600    0.0930   -0.6150 C   0  0  2  0  0  0  0  0  0  0  0  0
   -1.9860    1.3390   -0.0400 C   0  0  0  0  0  0  0  0  0  0  0  0
   -1.8040    2.4310   -0.6370 O   0  0  0  0  0  0  0  0  0  0  0  0
   -2.7440    1.2930    1.1140 O   0  0  0  0  0  0  0  0  0  0  0  0
   -1.6680   -1.0290    0.1810 O   0  0  0  0  0  0  0  0  0  0  0  0
   -0.7210   -1.8270    0.7850 C   0  0  0  0  0  0  0  0  0  0  0  0
    0.5740   -1.5890    0.6550 C   0  0  0  0  0  0  0  0  0  0  0  0
  1  2  2  0
  2  3  1  0
  2  4  1  0
  4  5  2  0
  4 12  1  0
  5  6  1  0
  6  7  1  1
  6 10  1  0
  7  8  2  0
  7  9  1  0
 10 11  1  0
 11 12  2  0
M  END
$$$$
../data/cho_sim50/152762477.pdb
     RDKit          3D

 16 16  0  0  1  0  0  0  0  0999 V2000
   -3.0860   -0.5360   -0.5330 C   0  0  0  0  0  0  0  0  0  0  0  0
   -2.2470   -0.8550    0.4380 C   0  0  0  0  0  0  0  0  0  0  0  0
   -1.2810    0.0300    0.8770 O   0  0  0  0  0  0  0  0  0  0  0  0
   -0.3470    0.6510   -0.0200 C   0  0  2  0  0  0  0  0  0  0  0  0
    0.4630   -0.3490   -0.7130 C   0  0  0  0  0  0  0  0  0  0  0  0
    1.7760   -0.3780   -0.7340 C   0  0  0  0  0  0  0  0  0  0  0  0
    2.5320   -1.3990   -1.4430 C   0  0  0  0  0  0  0  0  0  0  0  0
    3.7820   -1.3550   -1.4130 O   0  0  0  0  0  0  0  0  0  0  0  0
    1.9250   -2.4230   -2.1550 O   0  0  0  0  0  0  0  0  0  0  0  0
    2.5160    0.6510   -0.0120 C   0  0  0  0  0  0  0  0  0  0  0  0
    1.8710    1.5780    0.6390 C   0  0  0  0  0  0  0  0  0  0  0  0
    0.4210    1.6670    0.7030 C   0  0  1  0  0  0  0  0  0  0  0  0
   -0.0540    3.0940    0.3490 C   0  0  0  0  0  0  0  0  0  0  0  0
   -2.3170   -2.1580    1.0790 C   0  0  0  0  0  0  0  0  0  0  0  0
   -3.1980   -2.9680    0.6790 O   0  0  0  0  0  0  0  0  0  0  0  0
   -1.4500   -2.5210    2.1010 O   0  0  0  0  0  0  0  0  0  0  0  0
  1  2  2  0
  2  3  1  0
  2 14  1  0
  4  3  1  1
  4  5  1  0
  4 12  1  0
  5  6  2  0
  6  7  1  0
  6 10  1  0
  7  8  2  0
  7  9  1  0
 10 11  2  0
 11 12  1  0
 12 13  1  6
 14 15  2  0
 14 16  1  0
M  END
$$$$
../data/cho_sim50/152762478.pdb
     RDKit          3D

 15 15  0  0  1  0  0  0  0  0999 V2000
   -1.8500   -1.5920    0.0550 C   0  0  0  0  0  0  0  0  0  0  0  0
   -2.0770   -0.3180   -0.1210 C   0  0  0  0  0  0  0  0  0  0  0  0
   -1.3420    0.4250   -0.9700 O   0  0  0  0  0  0  0  0  0  0  0  0
    0.0150    0.8320   -0.8570 C   0  0  2  0  0  0  0  0  0  0  0  0
    0.9500   -0.2520   -0.7840 C   0  0  0  0  0  0  0  0  0  0  0  0
    1.9350   -0.2980    0.0710 C   0  0  0  0  0  0  0  0  0  0  0  0
    2.8740   -1.4190    0.1220 C   0  0  0  0  0  0  0  0  0  0  0  0
    3.8150   -1.4430    0.9520 O   0  0  0  0  0  0  0  0  0  0  0  0
    2.7710   -2.5080   -0.7430 O   0  0  0  0  0  0  0  0  0  0  0  0
    2.1380    0.7900    1.0190 C   0  0  0  0  0  0  0  0  0  0  0  0
    1.3220    1.8220    1.0100 C   0  0  0  0  0  0  0  0  0  0  0  0
    0.2030    1.9410    0.0860 C   0  0  0  0  0  0  0  0  0  0  0  0
   -3.1570    0.3010    0.6260 C   0  0  0  0  0  0  0  0  0  0  0  0
   -3.4210    1.5070    0.5000 O   0  0  0  0  0  0  0  0  0  0  0  0
   -3.9540   -0.4320    1.5250 O   0  0  0  0  0  0  0  0  0  0  0  0
  1  2  2  0
  2  3  1  0
  2 13  1  0
  4  3  1  1
  4  5  1  0
  4 12  1  0
  5  6  2  0
  6  7  1  0
  6 10  1  0
  7  8  2  0
  7  9  1  0
 10 11  2  0
 11 12  1  0
 13 14  2  0
 13 15  1  0
M  END
$$$$
../data/cho_sim50/154496778.pdb
     RDKit          3D

 16 16  0  0  1  0  0  0  0  0999 V2000
    3.8810    1.4810    1.1200 O   0  0  0  0  0  0  0  0  0  0  0  0
    3.8770    1.0300   -0.0510 C   0  0  0  0  0  0  0  0  0  0  0  0
    5.0370    1.1650   -0.7940 O   0  0  0  0  0  0  0  0  0  0  0  0
    2.6820    0.3860   -0.6030 C   0  0  0  0  0  0  0  0  0  0  0  0
    2.6500   -0.0750   -1.7710 O   0  0  0  0  0  0  0  0  0  0  0  0
    1.5240    0.2540    0.1460 O   0  0  0  0  0  0  0  0  0  0  0  0
    0.3450   -0.3760   -0.3820 C   0  0  1  0  0  0  0  0  0  0  0  0
    0.1470   -1.6420    0.4230 C   0  0  0  0  0  0  0  0  0  0  0  0
   -1.2320   -2.1850    0.2110 C   0  0  0  0  0  0  0  0  0  0  0  0
   -2.2240   -1.3100    0.2810 C   0  0  0  0  0  0  0  0  0  0  0  0
   -1.9690    0.1300    0.5570 C   0  0  2  0  0  0  0  0  0  0  0  0
   -3.1490    0.9640    0.2160 C   0  0  0  0  0  0  0  0  0  0  0  0
   -4.1720    0.4060   -0.2400 O   0  0  0  0  0  0  0  0  0  0  0  0
   -3.0970    2.3330    0.4060 O   0  0  0  0  0  0  0  0  0  0  0  0
   -0.8220    0.5240   -0.2930 C   0  0  0  0  0  0  0  0  0  0  0  0
   -0.8620    1.5670   -0.8940 O   0  0  0  0  0  0  0  0  0  0  0  0
  1  2  2  0
  2  3  1  0
  2  4  1  0
  4  5  2  0
  4  6  1  0
  7  6  1  1
  7  8  1  0
  7 15  1  0
  8  9  1  0
  9 10  2  0
 10 11  1  0
 11 12  1  6
 11 15  1  0
 12 13  2  0
 12 14  1  0
 15 16  2  0
M  END
$$$$
../data/cho_sim50/156542946.pdb
     RDKit          3D

 13 13  0  0  1  0  0  0  0  0999 V2000
    3.3770    1.5440   -0.5280 C   0  0  0  0  0  0  0  0  0  0  0  0
    2.1430    1.4890   -0.0760 C   0  0  0  0  0  0  0  0  0  0  0  0
    1.6900    0.3130    0.4790 O   0  0  0  0  0  0  0  0  0  0  0  0
    0.7050   -0.4660   -0.1900 C   0  0  2  0  0  0  0  0  0  0  0  0
   -0.4930    0.3640   -0.3440 C   0  0  0  0  0  0  0  0  0  0  0  0
   -1.6880    0.1020    0.1030 C   0  0  0  0  0  0  0  0  0  0  0  0
   -2.7950    1.0450   -0.1370 C   0  0  0  0  0  0  0  0  0  0  0  0
   -3.9330    0.7510    0.3140 O   0  0  0  0  0  0  0  0  0  0  0  0
   -2.5500    2.1970   -0.8330 O   0  0  0  0  0  0  0  0  0  0  0  0
   -1.9050   -1.1340    0.8390 C   0  0  0  0  0  0  0  0  0  0  0  0
   -0.8920   -1.9390    1.0260 C   0  0  0  0  0  0  0  0  0  0  0  0
    0.4900   -1.7290    0.5600 C   0  0  1  0  0  0  0  0  0  0  0  0
    0.8490   -2.8640   -0.1940 O   0  0  0  0  0  0  0  0  0  0  0  0
  1  2  2  0
  2  3  1  0
  4  3  1  1
  4  5  1  0
  4 12  1  0
  5  6  2  0
  6  7  1  0
  6 10  1  0
  7  8  2  0
  7  9  1  0
 10 11  2  0
 11 12  1  0
 12 13  1  6
M  END
$$$$
../data/cho_sim50/162821403.pdb
     RDKit          3D

 16 16  0  0  1  0  0  0  0  0999 V2000
    3.8980   -0.0440    1.7840 O   0  0  0  0  0  0  0  0  0  0  0  0
    3.9210    0.3760    0.5840 C   0  0  0  0  0  0  0  0  0  0  0  0
    5.1410    0.8230    0.1100 O   0  0  0  0  0  0  0  0  0  0  0  0
    2.7110    0.3750   -0.2300 C   0  0  0  0  0  0  0  0  0  0  0  0
    2.8180    0.8060   -1.4050 O   0  0  0  0  0  0  0  0  0  0  0  0
    1.4960   -0.0570    0.2010 O   0  0  0  0  0  0  0  0  0  0  0  0
    0.3080   -0.0710   -0.5600 C   0  0  1  0  0  0  0  0  0  0  0  0
   -0.2160   -1.4650   -0.7950 C   0  0  0  0  0  0  0  0  0  0  0  0
   -1.1170   -1.9160    0.3040 C   0  0  0  0  0  0  0  0  0  0  0  0
   -1.8260   -1.0990    1.0440 C   0  0  0  0  0  0  0  0  0  0  0  0
   -1.8290    0.3890    0.8890 C   0  0  2  0  0  0  0  0  0  0  0  0
   -3.1620    0.8020    0.3690 C   0  0  0  0  0  0  0  0  0  0  0  0
   -4.0730   -0.0380    0.1300 O   0  0  0  0  0  0  0  0  0  0  0  0
   -3.3850    2.1730    0.1470 O   0  0  0  0  0  0  0  0  0  0  0  0
   -0.7330    0.8380   -0.0100 C   0  0  0  0  0  0  0  0  0  0  0  0
   -0.7360    2.0440   -0.2840 O   0  0  0  0  0  0  0  0  0  0  0  0
  1  2  2  0
  2  3  1  0
  2  4  1  0
  4  5  2  0
  4  6  1  0
  7  6  1  1
  7  8  1  0
  7 15  1  0
  8  9  1  0
  9 10  2  0
 10 11  1  0
 11 12  1  6
 11 15  1  0
 12 13  2  0
 12 14  1  0
 15 16  2  0
M  END
$$$$
../data/cho_sim50/164132417.pdb
     RDKit          3D

 17 17  0  0  1  0  0  0  0  0999 V2000
    2.7290   -0.2290    1.3300 C   0  0  0  0  0  0  0  0  0  0  0  0
    2.3000    0.1130    0.1380 C   0  0  0  0  0  0  0  0  0  0  0  0
    1.3440   -0.6420   -0.4770 O   0  0  0  0  0  0  0  0  0  0  0  0
    0.0790   -0.9590    0.1250 C   0  0  1  0  0  0  0  0  0  0  0  0
   -0.6820    0.2320    0.4350 C   0  0  0  0  0  0  0  0  0  0  0  0
   -1.8990    0.4660    0.0090 C   0  0  0  0  0  0  0  0  0  0  0  0
   -2.6130    1.7010    0.3640 C   0  0  0  0  0  0  0  0  0  0  0  0
   -3.7710    1.8610   -0.0760 O   0  0  0  0  0  0  0  0  0  0  0  0
   -2.0710    2.6940    1.1600 O   0  0  0  0  0  0  0  0  0  0  0  0
   -2.5790   -0.5080   -0.8490 C   0  0  0  0  0  0  0  0  0  0  0  0
   -4.5350   -0.1740   -1.5560 I   0  0  0  0  0  0  0  0  0  0  0  0
   -1.9560   -1.6150   -1.1860 C   0  0  0  0  0  0  0  0  0  0  0  0
   -0.6030   -1.9330   -0.7470 C   0  0  2  0  0  0  0  0  0  0  0  0
   -0.5590   -3.1860   -0.0880 O   0  0  0  0  0  0  0  0  0  0  0  0
    2.8410    1.2840   -0.5170 C   0  0  0  0  0  0  0  0  0  0  0  0
    2.4720    1.6670   -1.6630 O   0  0  0  0  0  0  0  0  0  0  0  0
    3.8220    2.0590    0.1120 O   0  0  0  0  0  0  0  0  0  0  0  0
  1  2  2  0
  2  3  1  0
  2 15  1  0
  4  3  1  6
  4  5  1  0
  4 13  1  0
  5  6  2  0
  6  7  1  0
  6 10  1  0
  7  8  2  0
  7  9  1  0
 10 11  1  0
 10 12  2  0
 12 13  1  0
 13 14  1  1
 15 16  2  0
 15 17  1  0
M  END
$$$$
