../data/cho_sim50/306.pdb
     RDKit          3D

 16 16  0  0  1  0  0  0  0  0999 V2000
    1.9620    1.7170   -0.9740 C   0  0  0  0  0  0  0  0  0  0  0  0
    2.1230    0.4700   -0.5800 C   0  0  0  0  0  0  0  0  0  0  0  0
    1.1690   -0.4920   -0.8470 O   0  0  0  0  0  0  0  0  0  0  0  0
    0.1240   -0.8100    0.0810 C   0  0  1  0  0  0  0  0  0  0  0  0
   -0.7080    0.3660    0.3610 C   0  0  0  0  0  0  0  0  0  0  0  0
   -2.0230    0.4030    0.2510 C   0  0  0  0  0  0  0  0  0  0  0  0
   -2.7840    1.6030    0.5450 C   0  0  0  0  0  0  0  0  0  0  0  0
   -4.0260    1.6140    0.4330 O   0  0  0  0  0  0  0  0  0  0  0  0
   -2.1160    2.7370    0.9510 O   0  0  0  0  0  0  0  0  0  0  0  0
   -2.7250   -0.7920   -0.1820 C   0  0  0  0  0  0  0  0  0  0  0  0
   -2.0430   -1.8740   -0.4520 C   0  0  0  0  0  0  0  0  0  0  0  0
   -0.6000   -1.9880   -0.3550 C   0  0  2  0  0  0  0  0  0  0  0  0
   -0.2540   -3.1600    0.3650 O   0  0  0  0  0  0  0  0  0  0  0  0
    3.3300    0.1130    0.1480 C   0  0  0  0  0  0  0  0  0  0  0  0
    3.5180   -1.0840    0.5430 O   0  0  0  0  0  0  0  0  0  0  0  0
    4.3220    1.0180    0.4500 O   0  0  0  0  0  0  0  0  0  0  0  0
  1  2  2  0
  2  3  1  0
  2 14  1  0
  4  3  1  6
  4  5  1  0
  4 12  1  0
  5  6  2  0
  6  7  1  0
  6 10  1  0
  7  8  2  0
  7  9  1  0
 10 11  2  0
 11 12  1  0
 12 13  1  1
 14 15  2  0
 14 16  1  0
M  END
$$$$
../data/cho_sim50/12039.pdb
     RDKit          3D

 16 16  0  0  1  0  0  0  0  0999 V2000
   -3.3160    0.3500   -0.4610 C   0  0  0  0  0  0  0  0  0  0  0  0
   -2.4170   -0.0620    0.4040 C   0  0  0  0  0  0  0  0  0  0  0  0
   -1.4100    0.7970    0.7880 O   0  0  0  0  0  0  0  0  0  0  0  0
   -0.3320    1.0060   -0.1530 C   0  0  2  0  0  0  0  0  0  0  0  0
    0.2990   -0.2860   -0.4100 C   0  0  0  0  0  0  0  0  0  0  0  0
    1.5700   -0.5520   -0.2360 C   0  0  0  0  0  0  0  0  0  0  0  0
    2.1260   -1.8740   -0.5170 C   0  0  0  0  0  0  0  0  0  0  0  0
    1.4200   -2.8180   -0.9370 O   0  0  0  0  0  0  0  0  0  0  0  0
    3.4750   -2.1100   -0.3190 O   0  0  0  0  0  0  0  0  0  0  0  0
    2.4490    0.5130    0.2550 C   0  0  0  0  0  0  0  0  0  0  0  0
    1.9510    1.6840    0.5030 C   0  0  0  0  0  0  0  0  0  0  0  0
    0.5600    2.0670    0.3410 C   0  0  1  0  0  0  0  0  0  0  0  0
    0.4820    3.2070   -0.4910 O   0  0  0  0  0  0  0  0  0  0  0  0
   -2.4580   -1.3980    0.9650 C   0  0  0  0  0  0  0  0  0  0  0  0
   -3.3790   -2.1810    0.6130 O   0  0  0  0  0  0  0  0  0  0  0  0
   -1.5180   -1.8510    1.8790 O   0  0  0  0  0  0  0  0  0  0  0  0
  1  2  2  0
  2  3  1  0
  2 14  1  0
  4  3  1  1
  4  5  1  0
  4 12  1  0
  5  6  2  0
  6  7  1  0
  6 10  1  0
  7  8  2  0
  7  9  1  0
 10 11  2  0
 11 12  1  0
 12 13  1  6
 14 15  2  0
 14 16  1  0
M  END
>  <MODEL>  (2) 
       1

$$$$
../data/cho_sim50/12039.pdb
     RDKit          3D

 16 16  0  0  1  0  0  0  0  0999 V2000
    2.5180   -0.9560    2.0590 C   0  0  0  0  0  0  0  0  0  0  0  0
    2.1470    0.0600    1.3060 C   0  0  0  0  0  0  0  0  0  0  0  0
    0.7930    0.2930    1.1770 O   0  0  0  0  0  0  0  0  0  0  0  0
    0.1330    0.4240   -0.0730 C   0  0  2  0  0  0  0  0  0  0  0  0
   -1.2910    0.6630    0.2580 C   0  0  0  0  0  0  0  0  0  0  0  0
   -2.3150   -0.0070   -0.1860 C   0  0  0  0  0  0  0  0  0  0  0  0
   -3.6690    0.3500    0.2350 C   0  0  0  0  0  0  0  0  0  0  0  0
   -4.6180   -0.3270   -0.2220 O   0  0  0  0  0  0  0  0  0  0  0  0
   -3.8440    1.4060    1.1070 O   0  0  0  0  0  0  0  0  0  0  0  0
   -2.0580   -1.1060   -1.1000 C   0  0  0  0  0  0  0  0  0  0  0  0
   -0.8260   -1.3940   -1.4520 C   0  0  0  0  0  0  0  0  0  0  0  0
    0.3910   -0.6900   -0.9990 C   0  0  1  0  0  0  0  0  0  0  0  0
    1.0500   -0.2420   -2.1630 O   0  0  0  0  0  0  0  0  0  0  0  0
    3.1440    0.8740    0.6590 C   0  0  0  0  0  0  0  0  0  0  0  0
    4.3680    0.7120    0.7390 O   0  0  0  0  0  0  0  0  0  0  0  0
    2.6990    1.9480   -0.1340 O   0  0  0  0  0  0  0  0  0  0  0  0
  1  2  2  0
  2  3  1  0
  2 14  1  0
  4  3  1  1
  4  5  1  0
  4 12  1  0
  5  6  2  0
  6  7  1  0
  6 10  1  0
  7  8  2  0
  7  9  1  0
 10 11  2  0
 11 12  1  0
 12 13  1  6
 14 15  2  0
 14 16  1  0
M  END
>  <MODEL>  (3) 
       2

$$$$
../data/cho_sim50/5460312.pdb
     RDKit          3D

 16 16  0  0  1  0  0  0  0  0999 V2000
    1.6700    1.4040   -0.8500 C   0  0  0  0  0  0  0  0  0  0  0  0
    2.0690    0.2700   -0.3050 C   0  0  0  0  0  0  0  0  0  0  0  0
    1.5310   -0.9160   -0.7000 O   0  0  0  0  0  0  0  0  0  0  0  0
    0.1580   -1.3010   -0.5440 C   0  0  2  0  0  0  0  0  0  0  0  0
   -0.7430   -0.4100   -1.2390 C   0  0  0  0  0  0  0  0  0  0  0  0
   -1.7640    0.2130   -0.6850 C   0  0  0  0  0  0  0  0  0  0  0  0
   -2.6250    1.0980   -1.4640 C   0  0  0  0  0  0  0  0  0  0  0  0
   -2.3920    1.2760   -2.6970 O   0  0  0  0  0  0  0  0  0  0  0  0
   -3.6910    1.7440   -0.8700 O   0  0  0  0  0  0  0  0  0  0  0  0
   -2.0380    0.0050    0.7240 C   0  0  0  0  0  0  0  0  0  0  0  0
   -1.2710   -0.7940    1.4190 C   0  0  0  0  0  0  0  0  0  0  0  0
   -0.1330   -1.5130    0.8810 C   0  0  1  0  0  0  0  0  0  0  0  0
   -0.2830   -2.9010    1.1730 O   0  0  0  0  0  0  0  0  0  0  0  0
    3.0920    0.2840    0.7290 C   0  0  0  0  0  0  0  0  0  0  0  0
    3.4890   -0.8000    1.2650 O   0  0  0  0  0  0  0  0  0  0  0  0
    3.6340    1.4850    1.1280 O   0  0  0  0  0  0  0  0  0  0  0  0
  1  2  2  0
  2  3  1  0
  2 14  1  0
  4  3  1  1
  4  5  1  0
  4 12  1  0
  5  6  2  0
  6  7  1  0
  6 10  1  0
  7  8  2  0
  7  9  1  0
 10 11  2  0
 11 12  1  0
 12 13  1  6
 14 15  2  0
 14 16  1  0
M  END
>  <MODEL>  (4) 
       1

$$$$
../data/cho_sim50/5460312.pdb
     RDKit          3D

 16 16  0  0  1  0  0  0  0  0999 V2000
    3.0310   -0.4450    1.5810 C   0  0  0  0  0  0  0  0  0  0  0  0
    2.3620   -0.2100    0.4680 C   0  0  0  0  0  0  0  0  0  0  0  0
    1.2470   -0.9450    0.2290 O   0  0  0  0  0  0  0  0  0  0  0  0
    0.1160   -0.5790   -0.5530 C   0  0  2  0  0  0  0  0  0  0  0  0
   -0.5440    0.6050   -0.0630 C   0  0  0  0  0  0  0  0  0  0  0  0
   -1.8070    0.6760    0.2140 C   0  0  0  0  0  0  0  0  0  0  0  0
   -2.4120    1.9070    0.7060 C   0  0  0  0  0  0  0  0  0  0  0  0
   -1.6980    2.9210    0.8650 O   0  0  0  0  0  0  0  0  0  0  0  0
   -3.7480    1.9890    1.0020 O   0  0  0  0  0  0  0  0  0  0  0  0
   -2.6630   -0.5210    0.0410 C   0  0  0  0  0  0  0  0  0  0  0  0
   -2.1280   -1.6260   -0.3870 C   0  0  0  0  0  0  0  0  0  0  0  0
   -0.7270   -1.7740   -0.7120 C   0  0  1  0  0  0  0  0  0  0  0  0
   -0.6350   -2.3170   -2.0260 O   0  0  0  0  0  0  0  0  0  0  0  0
    2.8680    0.8380   -0.4440 C   0  0  0  0  0  0  0  0  0  0  0  0
    2.2980    1.1300   -1.5240 O   0  0  0  0  0  0  0  0  0  0  0  0
    4.0170    1.5530   -0.1360 O   0  0  0  0  0  0  0  0  0  0  0  0
  1  2  2  0
  2  3  1  0
  2 14  1  0
  4  3  1  1
  4  5  1  0
  4 12  1  0
  5  6  2  0
  6  7  1  0
  6 10  1  0
  7  8  2  0
  7  9  1  0
 10 11  2  0
 11 12  1  0
 12 13  1  6
 14 15  2  0
 14 16  1  0
M  END
>  <MODEL>  (5) 
       2

$$$$
../data/cho_sim50/10680903.pdb
     RDKit          3D

 16 16  0  0  1  0  0  0  0  0999 V2000
    2.6130   -0.6560    1.0450 C   0  0  0  0  0  0  0  0  0  0  0  0
    2.3540   -0.3570   -0.2180 C   0  0  0  0  0  0  0  0  0  0  0  0
    1.4020    0.5620   -0.6220 O   0  0  0  0  0  0  0  0  0  0  0  0
    0.2940    0.7890    0.2680 C   0  0  2  0  0  0  0  0  0  0  0  0
   -0.4440   -0.4290    0.5170 C   0  0  0  0  0  0  0  0  0  0  0  0
   -1.7350   -0.5420    0.4310 C   0  0  0  0  0  0  0  0  0  0  0  0
   -2.4460   -1.8110    0.6960 C   0  0  0  0  0  0  0  0  0  0  0  0
   -1.8450   -2.8470    1.0180 O   0  0  0  0  0  0  0  0  0  0  0  0
   -3.8270   -1.8620    0.5860 O   0  0  0  0  0  0  0  0  0  0  0  0
   -2.5140    0.6440    0.0450 C   0  0  0  0  0  0  0  0  0  0  0  0
   -1.9210    1.7730   -0.2030 C   0  0  0  0  0  0  0  0  0  0  0  0
   -0.4950    1.9630   -0.1270 C   0  0  1  0  0  0  0  0  0  0  0  0
   -0.1530    3.1140    0.6330 O   0  0  0  0  0  0  0  0  0  0  0  0
    3.1160   -1.0350   -1.2540 C   0  0  0  0  0  0  0  0  0  0  0  0
    3.9810   -1.8690   -0.9450 O   0  0  0  0  0  0  0  0  0  0  0  0
    2.8730   -0.7500   -2.5810 O   0  0  0  0  0  0  0  0  0  0  0  0
  1  2  2  0
  2  3  1  0
  2 14  1  0
  4  3  1  6
  4  5  1  0
  4 12  1  0
  5  6  2  0
  6  7  1  0
  6 10  1  0
  7  8  2  0
  7  9  1  0
 10 11  2  0
 11 12  1  0
 12 13  1  1
 14 15  2  0
 14 16  1  0
M  END
>  <MODEL>  (6) 
       1

$$$$
../data/cho_sim50/10680903.pdb
     RDKit          3D

 16 16  0  0  1  0  0  0  0  0999 V2000
    3.0170    0.2810   -1.6150 C   0  0  0  0  0  0  0  0  0  0  0  0
    2.4160    0.5000   -0.4760 C   0  0  0  0  0  0  0  0  0  0  0  0
    1.0960    0.8940   -0.3580 O   0  0  0  0  0  0  0  0  0  0  0  0
    0.0060    0.0550   -0.7470 C   0  0  2  0  0  0  0  0  0  0  0  0
   -1.2450    0.7670   -0.4950 C   0  0  0  0  0  0  0  0  0  0  0  0
   -2.2460    0.3890    0.2600 C   0  0  0  0  0  0  0  0  0  0  0  0
   -3.4550    1.1760    0.4460 C   0  0  0  0  0  0  0  0  0  0  0  0
   -4.3640    0.7450    1.1820 O   0  0  0  0  0  0  0  0  0  0  0  0
   -3.6230    2.3940   -0.1750 O   0  0  0  0  0  0  0  0  0  0  0  0
   -2.1040   -0.8980    0.9350 C   0  0  0  0  0  0  0  0  0  0  0  0
   -1.0270   -1.6240    0.7840 C   0  0  0  0  0  0  0  0  0  0  0  0
    0.1130   -1.2390   -0.0480 C   0  0  1  0  0  0  0  0  0  0  0  0
    0.3190   -2.3050   -0.9520 O   0  0  0  0  0  0  0  0  0  0  0  0
    3.1660    0.3240    0.7640 C   0  0  0  0  0  0  0  0  0  0  0  0
    4.3850   -0.0360    0.7560 O   0  0  0  0  0  0  0  0  0  0  0  0
    2.6120    0.5330    2.0210 O   0  0  0  0  0  0  0  0  0  0  0  0
  1  2  2  0
  2  3  1  0
  2 14  1  0
  4  3  1  1
  4  5  1  0
  4 12  1  0
  5  6  2  0
  6  7  1  0
  6 10  1  0
  7  8  2  0
  7  9  1  0
 10 11  2  0
 11 12  1  0
 12 13  1  6
 14 15  2  0
 14 16  1  0
M  END
>  <MODEL>  (7) 
       2

$$$$
../data/cho_sim50/10680903.pdb
     RDKit          3D

 16 16  0  0  1  0  0  0  0  0999 V2000
    1.7030   -1.5370   -2.1530 C   0  0  0  0  0  0  0  0  0  0  0  0
    1.9740   -0.5560   -1.3130 C   0  0  0  0  0  0  0  0  0  0  0  0
    1.0920    0.5070   -1.2440 O   0  0  0  0  0  0  0  0  0  0  0  0
    0.3930    0.6730    0.0060 C   0  0  2  0  0  0  0  0  0  0  0  0
   -0.3990   -0.5110    0.3000 C   0  0  0  0  0  0  0  0  0  0  0  0
   -1.6740   -0.5420    0.6170 C   0  0  0  0  0  0  0  0  0  0  0  0
   -2.3960   -1.7800    0.8990 C   0  0  0  0  0  0  0  0  0  0  0  0
   -1.8070   -2.8750    0.8460 O   0  0  0  0  0  0  0  0  0  0  0  0
   -3.7420   -1.7490    1.2280 O   0  0  0  0  0  0  0  0  0  0  0  0
   -2.3400    0.7540    0.6670 C   0  0  0  0  0  0  0  0  0  0  0  0
   -1.7260    1.8730    0.4170 C   0  0  0  0  0  0  0  0  0  0  0  0
   -0.3240    1.9510    0.0630 C   0  0  1  0  0  0  0  0  0  0  0  0
    0.3580    2.9180    0.8450 O   0  0  0  0  0  0  0  0  0  0  0  0
    3.1880   -0.6000   -0.4720 C   0  0  0  0  0  0  0  0  0  0  0  0
    3.9510   -1.5900   -0.5780 O   0  0  0  0  0  0  0  0  0  0  0  0
    3.4950    0.4110    0.4130 O   0  0  0  0  0  0  0  0  0  0  0  0
  1  2  2  0
  2  3  1  0
  2 14  1  0
  4  3  1  6
  4  5  1  0
  4 12  1  0
  5  6  2  0
  6  7  1  0
  6 10  1  0
  7  8  2  0
  7  9  1  0
 10 11  2  0
 11 12  1  0
 12 13  1  1
 14 15  2  0
 14 16  1  0
M  END
>  <MODEL>  (8) 
       3

$$$$
../data/cho_sim50/10751803.pdb
     RDKit          3D

 16 16  0  0  1  0  0  0  0  0999 V2000
    2.8870   -0.9480    1.2420 C   0  0  0  0  0  0  0  0  0  0  0  0
    2.4010    0.1120    0.6140 C   0  0  0  0  0  0  0  0  0  0  0  0
    1.1380    0.5950    0.9160 O   0  0  0  0  0  0  0  0  0  0  0  0
    0.1490    0.5130   -0.1310 C   0  0  2  0  0  0  0  0  0  0  0  0
   -1.1230    1.0500    0.3100 C   0  0  0  0  0  0  0  0  0  0  0  0
   -2.2530    0.3950    0.2520 C   0  0  0  0  0  0  0  0  0  0  0  0
   -3.5140    1.0070    0.7200 C   0  0  0  0  0  0  0  0  0  0  0  0
   -3.4920    2.1740    1.1790 O   0  0  0  0  0  0  0  0  0  0  0  0
   -4.6860    0.2910    0.6460 O   0  0  0  0  0  0  0  0  0  0  0  0
   -2.2710   -0.9660   -0.2730 C   0  0  0  0  0  0  0  0  0  0  0  0
   -1.1610   -1.5270   -0.6820 C   0  0  0  0  0  0  0  0  0  0  0  0
    0.1300   -0.8510   -0.6420 C   0  0  1  0  0  0  0  0  0  0  0  0
    0.7800   -0.9500   -1.9110 O   0  0  0  0  0  0  0  0  0  0  0  0
    3.2060    0.7720   -0.4030 C   0  0  0  0  0  0  0  0  0  0  0  0
    4.3560    0.3410   -0.6860 O   0  0  0  0  0  0  0  0  0  0  0  0
    2.7390    1.8750   -1.0760 O   0  0  0  0  0  0  0  0  0  0  0  0
  1  2  2  0
  2  3  1  0
  2 14  1  0
  4  3  1  1
  4  5  1  0
  4 12  1  0
  5  6  2  0
  6  7  1  0
  6 10  1  0
  7  8  2  0
  7  9  1  0
 10 11  2  0
 11 12  1  0
 12 13  1  6
 14 15  2  0
 14 16  1  0
M  END
>  <MODEL>  (9) 
       1

$$$$
../data/cho_sim50/10751803.pdb
     RDKit          3D

 16 16  0  0  1  0  0  0  0  0999 V2000
    2.4560   -1.6400   -1.3860 C   0  0  0  0  0  0  0  0  0  0  0  0
    2.2610   -0.3850   -1.0250 C   0  0  0  0  0  0  0  0  0  0  0  0
    1.0160    0.2190   -1.0580 O   0  0  0  0  0  0  0  0  0  0  0  0
   -0.1790   -0.5130   -0.6720 C   0  0  2  0  0  0  0  0  0  0  0  0
   -1.2870    0.4160   -0.8260 C   0  0  0  0  0  0  0  0  0  0  0  0
   -2.0720    0.8580    0.1220 C   0  0  0  0  0  0  0  0  0  0  0  0
   -3.1690    1.7960   -0.1130 C   0  0  0  0  0  0  0  0  0  0  0  0
   -3.9230    2.2220    0.7910 O   0  0  0  0  0  0  0  0  0  0  0  0
   -3.4030    2.2510   -1.4000 O   0  0  0  0  0  0  0  0  0  0  0  0
   -1.7990    0.3510    1.4680 C   0  0  0  0  0  0  0  0  0  0  0  0
   -0.8370   -0.4880    1.7120 C   0  0  0  0  0  0  0  0  0  0  0  0
    0.0540   -1.0030    0.6920 C   0  0  1  0  0  0  0  0  0  0  0  0
   -0.2010   -2.4190    0.6500 O   0  0  0  0  0  0  0  0  0  0  0  0
    3.4050    0.3880   -0.5760 C   0  0  0  0  0  0  0  0  0  0  0  0
    4.5350   -0.1450   -0.5410 O   0  0  0  0  0  0  0  0  0  0  0  0
    3.2920    1.7160   -0.1780 O   0  0  0  0  0  0  0  0  0  0  0  0
  1  2  2  0
  2  3  1  0
  2 14  1  0
  4  3  1  1
  4  5  1  0
  4 12  1  0
  5  6  2  0
  6  7  1  0
  6 10  1  0
  7  8  2  0
  7  9  1  0
 10 11  2  0
 11 12  1  0
 12 13  1  6
 14 15  2  0
 14 16  1  0
M  END
>  <MODEL>  (10) 
       2

$$$$
../data/cho_sim50/10751803.pdb
     RDKit          3D

 16 16  0  0  1  0  0  0  0  0999 V2000
    2.2300    0.6990   -1.4910 C   0  0  0  0  0  0  0  0  0  0  0  0
    2.2960    0.2830   -0.2480 C   0  0  0  0  0  0  0  0  0  0  0  0
    1.4050   -0.6600    0.2140 O   0  0  0  0  0  0  0  0  0  0  0  0
    0.1330   -0.9130   -0.3540 C   0  0  2  0  0  0  0  0  0  0  0  0
   -0.6410    0.3370   -0.2750 C   0  0  0  0  0  0  0  0  0  0  0  0
   -1.8140    0.4910    0.2660 C   0  0  0  0  0  0  0  0  0  0  0  0
   -2.4810    1.7910    0.2810 C   0  0  0  0  0  0  0  0  0  0  0  0
   -1.9160    2.7680   -0.2340 O   0  0  0  0  0  0  0  0  0  0  0  0
   -3.7280    1.9750    0.8510 O   0  0  0  0  0  0  0  0  0  0  0  0
   -2.4650   -0.6630    0.8660 C   0  0  0  0  0  0  0  0  0  0  0  0
   -1.8530   -1.8130    0.8430 C   0  0  0  0  0  0  0  0  0  0  0  0
   -0.5360   -2.0850    0.2590 C   0  0  1  0  0  0  0  0  0  0  0  0
   -0.6780   -3.1280   -0.6570 O   0  0  0  0  0  0  0  0  0  0  0  0
    3.3000    0.8080    0.6430 C   0  0  0  0  0  0  0  0  0  0  0  0
    3.3710    0.4180    1.8280 O   0  0  0  0  0  0  0  0  0  0  0  0
    4.1940    1.7530    0.1790 O   0  0  0  0  0  0  0  0  0  0  0  0
  1  2  2  0
  2  3  1  0
  2 14  1  0
  4  3  1  1
  4  5  1  0
  4 12  1  0
  5  6  2  0
  6  7  1  0
  6 10  1  0
  7  8  2  0
  7  9  1  0
 10 11  2  0
 11 12  1  0
 12 13  1  6
 14 15  2  0
 14 16  1  0
M  END
>  <MODEL>  (11) 
       3

$$$$
../data/cho_sim50/11086296.pdb
     RDKit          3D

 18 18  0  0  1  0  0  0  0  0999 V2000
   -2.2080   -2.3370   -1.7350 C   0  0  0  0  0  0  0  0  0  0  0  0
   -1.9590   -1.0930   -1.3790 C   0  0  0  0  0  0  0  0  0  0  0  0
   -0.6430   -0.7240   -1.1750 O   0  0  0  0  0  0  0  0  0  0  0  0
   -0.2330   -0.0110    0.0040 C   0  0  2  0  0  0  0  0  0  0  0  0
    1.2100    0.2330   -0.0720 C   0  0  0  0  0  0  0  0  0  0  0  0
    2.1210   -0.1100    0.8120 C   0  0  0  0  0  0  0  0  0  0  0  0
    3.5210    0.1890    0.6240 C   0  0  0  0  0  0  0  0  0  0  0  0
    4.4150   -0.1250    1.4480 O   0  0  0  0  0  0  0  0  0  0  0  0
    3.9160    0.8560   -0.5230 O   0  0  0  0  0  0  0  0  0  0  0  0
    5.2550    1.1950   -0.8040 C   0  0  0  0  0  0  0  0  0  0  0  0
    1.6400   -0.8100    1.9890 C   0  0  0  0  0  0  0  0  0  0  0  0
    0.3700   -1.0830    2.1570 C   0  0  0  0  0  0  0  0  0  0  0  0
   -0.6720   -0.7260    1.2090 C   0  0  1  0  0  0  0  0  0  0  0  0
   -1.6620    0.0880    1.8260 O   0  0  0  0  0  0  0  0  0  0  0  0
   -3.0710   -0.1720   -1.2170 C   0  0  0  0  0  0  0  0  0  0  0  0
   -4.2550   -0.5450   -1.4110 O   0  0  0  0  0  0  0  0  0  0  0  0
   -2.8940    1.1570   -0.8430 O   0  0  0  0  0  0  0  0  0  0  0  0
   -4.0190    2.0260   -0.6970 C   0  0  0  0  0  0  0  0  0  0  0  0
  1  2  2  0
  2  3  1  0
  2 15  1  0
  4  3  1  6
  4  5  1  0
  4 13  1  0
  5  6  2  0
  6  7  1  0
  6 11  1  0
  7  8  2  0
  7  9  1  0
  9 10  1  0
 11 12  2  0
 12 13  1  0
 13 14  1  1
 15 16  2  0
 15 17  1  0
 17 18  1  0
M  END
>  <MODEL>  (12) 
       1

$$$$
../data/cho_sim50/11086296.pdb
     RDKit          3D

 18 18  0  0  1  0  0  0  0  0999 V2000
    2.8450   -0.7960   -1.1300 C   0  0  0  0  0  0  0  0  0  0  0  0
    2.2030    0.2920   -0.7700 C   0  0  0  0  0  0  0  0  0  0  0  0
    0.8260    0.3010   -0.8650 O   0  0  0  0  0  0  0  0  0  0  0  0
    0.0090   -0.8280   -0.6180 C   0  0  2  0  0  0  0  0  0  0  0  0
   -1.3870   -0.4290   -0.8190 C   0  0  0  0  0  0  0  0  0  0  0  0
   -2.3690   -0.5980    0.0360 C   0  0  0  0  0  0  0  0  0  0  0  0
   -3.7300   -0.1590   -0.2700 C   0  0  0  0  0  0  0  0  0  0  0  0
   -4.6530   -0.3270    0.5530 O   0  0  0  0  0  0  0  0  0  0  0  0
   -4.0340    0.4540   -1.4770 O   0  0  0  0  0  0  0  0  0  0  0  0
   -5.3460    0.8930   -1.8060 C   0  0  0  0  0  0  0  0  0  0  0  0
   -2.0910   -1.2340    1.3060 C   0  0  0  0  0  0  0  0  0  0  0  0
   -0.8750   -1.6210    1.5670 C   0  0  0  0  0  0  0  0  0  0  0  0
    0.2940   -1.4830    0.6900 C   0  0  1  0  0  0  0  0  0  0  0  0
    0.8300   -2.7810    0.5210 O   0  0  0  0  0  0  0  0  0  0  0  0
    2.9610    1.4500   -0.2840 C   0  0  0  0  0  0  0  0  0  0  0  0
    2.3620    2.5080    0.0670 O   0  0  0  0  0  0  0  0  0  0  0  0
    4.3340    1.4510   -0.1860 O   0  0  0  0  0  0  0  0  0  0  0  0
    5.0940    2.5560    0.2800 C   0  0  0  0  0  0  0  0  0  0  0  0
  1  2  2  0
  2  3  1  0
  2 15  1  0
  4  3  1  1
  4  5  1  0
  4 13  1  0
  5  6  2  0
  6  7  1  0
  6 11  1  0
  7  8  2  0
  7  9  1  0
  9 10  1  0
 11 12  2  0
 12 13  1  0
 13 14  1  6
 15 16  2  0
 15 17  1  0
 17 18  1  0
M  END
>  <MODEL>  (13) 
       2

$$$$
../data/cho_sim50/11086296.pdb
     RDKit          3D

 18 18  0  0  1  0  0  0  0  0999 V2000
    2.1960   -1.0190   -1.9490 C   0  0  0  0  0  0  0  0  0  0  0  0
    2.1370   -0.8090   -0.6580 C   0  0  0  0  0  0  0  0  0  0  0  0
    1.2540   -1.5210    0.1160 O   0  0  0  0  0  0  0  0  0  0  0  0
   -0.1360   -1.6890   -0.2730 C   0  0  2  0  0  0  0  0  0  0  0  0
   -0.7090   -0.3460   -0.3630 C   0  0  0  0  0  0  0  0  0  0  0  0
   -1.7210    0.0620    0.3590 C   0  0  0  0  0  0  0  0  0  0  0  0
   -2.2460    1.4380    0.2120 C   0  0  0  0  0  0  0  0  0  0  0  0
   -1.7250    2.2070   -0.5990 O   0  0  0  0  0  0  0  0  0  0  0  0
   -3.3030    1.8150    0.9880 O   0  0  0  0  0  0  0  0  0  0  0  0
   -3.8900    3.1030    0.9350 C   0  0  0  0  0  0  0  0  0  0  0  0
   -2.3310   -0.8480    1.3110 C   0  0  0  0  0  0  0  0  0  0  0  0
   -1.8500   -2.0600    1.4230 C   0  0  0  0  0  0  0  0  0  0  0  0
   -0.7370   -2.6460    0.6890 C   0  0  1  0  0  0  0  0  0  0  0  0
   -1.0980   -3.8590    0.0660 O   0  0  0  0  0  0  0  0  0  0  0  0
    3.0070    0.1830   -0.0220 C   0  0  0  0  0  0  0  0  0  0  0  0
    2.9540    0.3840    1.2010 O   0  0  0  0  0  0  0  0  0  0  0  0
    3.9210    0.9330   -0.7570 O   0  0  0  0  0  0  0  0  0  0  0  0
    4.7720    1.8980   -0.1580 C   0  0  0  0  0  0  0  0  0  0  0  0
  1  2  2  0
  2  3  1  0
  2 15  1  0
  4  3  1  1
  4  5  1  0
  4 13  1  0
  5  6  2  0
  6  7  1  0
  6 11  1  0
  7  8  2  0
  7  9  1  0
  9 10  1  0
 11 12  2  0
 12 13  1  0
 13 14  1  6
 15 16  2  0
 15 17  1  0
 17 18  1  0
M  END
>  <MODEL>  (14) 
       3

$$$$
../data/cho_sim50/13257072.pdb
     RDKit          3D

 16 16  0  0  1  0  0  0  0  0999 V2000
   -2.6490   -0.9510    1.2920 C   0  0  0  0  0  0  0  0  0  0  0  0
   -2.2060   -0.0720    0.3910 C   0  0  0  0  0  0  0  0  0  0  0  0
   -1.7500   -0.5240   -0.8040 O   0  0  0  0  0  0  0  0  0  0  0  0
   -0.3820   -0.7080   -1.1890 C   0  0  1  0  0  0  0  0  0  0  0  0
    0.3640    0.5420   -1.1520 C   0  0  0  0  0  0  0  0  0  0  0  0
    1.4510    0.6980   -0.4490 C   0  0  0  0  0  0  0  0  0  0  0  0
    2.1830    1.9570   -0.4140 C   0  0  0  0  0  0  0  0  0  0  0  0
    1.7490    2.9190   -1.0850 O   0  0  0  0  0  0  0  0  0  0  0  0
    3.3230    2.1310    0.3210 O   0  0  0  0  0  0  0  0  0  0  0  0
    2.0170   -0.4360    0.2790 C   0  0  0  0  0  0  0  0  0  0  0  0
    1.4410   -1.6010    0.2160 C   0  0  0  0  0  0  0  0  0  0  0  0
    0.2430   -1.8570   -0.5550 C   0  0  2  0  0  0  0  0  0  0  0  0
    0.5920   -2.8690   -1.5000 O   0  0  0  0  0  0  0  0  0  0  0  0
   -2.2400    1.3390    0.7480 C   0  0  0  0  0  0  0  0  0  0  0  0
   -2.6780    1.7000    1.8970 O   0  0  0  0  0  0  0  0  0  0  0  0
   -1.8300    2.3540   -0.0650 O   0  0  0  0  0  0  0  0  0  0  0  0
  1  2  2  0
  2  3  1  0
  2 14  1  0
  4  3  1  1
  4  5  1  0
  4 12  1  0
  5  6  2  0
  6  7  1  0
  6 10  1  0
  7  8  2  0
  7  9  1  0
 10 11  2  0
 11 12  1  0
 12 13  1  6
 14 15  2  0
 14 16  1  0
M  END
>  <MODEL>  (15) 
       1

$$$$
../data/cho_sim50/13257072.pdb
     RDKit          3D

 16 16  0  0  1  0  0  0  0  0999 V2000
   -2.8350   -1.3980    0.9350 C   0  0  0  0  0  0  0  0  0  0  0  0
   -2.4980   -0.1680    0.5950 C   0  0  0  0  0  0  0  0  0  0  0  0
   -1.2450    0.2870    0.9630 O   0  0  0  0  0  0  0  0  0  0  0  0
   -0.1770    0.4050   -0.0010 C   0  0  1  0  0  0  0  0  0  0  0  0
    1.0250    0.9040    0.6450 C   0  0  0  0  0  0  0  0  0  0  0  0
    2.2260    0.3580    0.6160 C   0  0  0  0  0  0  0  0  0  0  0  0
    3.3680    0.9450    1.3030 C   0  0  0  0  0  0  0  0  0  0  0  0
    3.3130    1.9970    1.9680 O   0  0  0  0  0  0  0  0  0  0  0  0
    4.5900    0.2980    1.2150 O   0  0  0  0  0  0  0  0  0  0  0  0
    2.3300   -0.8780   -0.1540 C   0  0  0  0  0  0  0  0  0  0  0  0
    1.3300   -1.4320   -0.7810 C   0  0  0  0  0  0  0  0  0  0  0  0
   -0.0180   -0.8610   -0.7760 C   0  0  2  0  0  0  0  0  0  0  0  0
   -0.4180   -0.5950   -2.1210 O   0  0  0  0  0  0  0  0  0  0  0  0
   -3.4500    0.6470   -0.1440 C   0  0  0  0  0  0  0  0  0  0  0  0
   -4.5820    0.1990   -0.4610 O   0  0  0  0  0  0  0  0  0  0  0  0
   -3.1700    1.9500   -0.5380 O   0  0  0  0  0  0  0  0  0  0  0  0
  1  2  2  0
  2  3  1  0
  2 14  1  0
  4  3  1  1
  4  5  1  0
  4 12  1  0
  5  6  2  0
  6  7  1  0
  6 10  1  0
  7  8  2  0
  7  9  1  0
 10 11  2  0
 11 12  1  0
 12 13  1  6
 14 15  2  0
 14 16  1  0
M  END
>  <MODEL>  (16) 
       2

$$$$
../data/cho_sim50/16219080.pdb
     RDKit          3D

 16 16  0  0  1  0  0  0  0  0999 V2000
   -2.6560   -1.1750    1.0880 C   0  0  0  0  0  0  0  0  0  0  0  0
   -2.3880   -0.0560    0.4330 C   0  0  0  0  0  0  0  0  0  0  0  0
   -1.1450    0.5530    0.5150 O   0  0  0  0  0  0  0  0  0  0  0  0
    0.0590   -0.2470    0.5520 C   0  0  2  0  0  0  0  0  0  0  0  0
    1.2400    0.6220    0.6390 C   0  0  0  0  0  0  0  0  0  0  0  0
    2.2310    0.6170   -0.2290 C   0  0  0  0  0  0  0  0  0  0  0  0
    3.3920    1.5150   -0.0890 C   0  0  0  0  0  0  0  0  0  0  0  0
    4.3000    1.4750   -0.9300 O   0  0  0  0  0  0  0  0  0  0  0  0
    3.4490    2.3840    0.9720 O   0  0  0  0  0  0  0  0  0  0  0  0
    2.1570   -0.3110   -1.3500 C   0  0  0  0  0  0  0  0  0  0  0  0
    1.1420   -1.1070   -1.4850 C   0  0  0  0  0  0  0  0  0  0  0  0
    0.0010   -1.1870   -0.5960 C   0  0  1  0  0  0  0  0  0  0  0  0
   -0.0520   -2.5350   -0.1360 O   0  0  0  0  0  0  0  0  0  0  0  0
   -3.4150    0.5460   -0.3860 C   0  0  0  0  0  0  0  0  0  0  0  0
   -4.5420    0.0160   -0.4750 O   0  0  0  0  0  0  0  0  0  0  0  0
   -3.1580    1.7150   -1.0780 O   0  0  0  0  0  0  0  0  0  0  0  0
  1  2  2  0
  2  3  1  0
  2 14  1  0
  4  3  1  6
  4  5  1  0
  4 12  1  0
  5  6  2  0
  6  7  1  0
  6 10  1  0
  7  8  2  0
  7  9  1  0
 10 11  2  0
 11 12  1  0
 12 13  1  1
 14 15  2  0
 14 16  1  0
M  END
>  <MODEL>  (17) 
       1

$$$$
../data/cho_sim50/16219080.pdb
     RDKit          3D

 16 16  0  0  1  0  0  0  0  0999 V2000
    2.2200    0.6080    2.0740 C   0  0  0  0  0  0  0  0  0  0  0  0
    2.1760    0.0910    0.8630 C   0  0  0  0  0  0  0  0  0  0  0  0
    1.1860   -0.8460    0.6210 O   0  0  0  0  0  0  0  0  0  0  0  0
    0.2720   -0.7650   -0.4510 C   0  0  2  0  0  0  0  0  0  0  0  0
   -0.4860    0.4920   -0.2960 C   0  0  0  0  0  0  0  0  0  0  0  0
   -1.7770    0.6020   -0.1680 C   0  0  0  0  0  0  0  0  0  0  0  0
   -2.4260    1.9080   -0.0210 C   0  0  0  0  0  0  0  0  0  0  0  0
   -1.7830    2.9780   -0.0090 O   0  0  0  0  0  0  0  0  0  0  0  0
   -3.8050    1.9950    0.1140 O   0  0  0  0  0  0  0  0  0  0  0  0
   -2.5900   -0.6020   -0.1730 C   0  0  0  0  0  0  0  0  0  0  0  0
   -2.0020   -1.7780   -0.3060 C   0  0  0  0  0  0  0  0  0  0  0  0
   -0.5640   -1.9920   -0.4550 C   0  0  1  0  0  0  0  0  0  0  0  0
   -0.3650   -2.6540   -1.6860 O   0  0  0  0  0  0  0  0  0  0  0  0
    3.1370    0.5060   -0.1520 C   0  0  0  0  0  0  0  0  0  0  0  0
    3.1080    0.0240   -1.3060 O   0  0  0  0  0  0  0  0  0  0  0  0
    4.0980    1.4450    0.1560 O   0  0  0  0  0  0  0  0  0  0  0  0
  1  2  2  0
  2  3  1  0
  2 14  1  0
  4  3  1  1
  4  5  1  0
  4 12  1  0
  5  6  2  0
  6  7  1  0
  6 10  1  0
  7  8  2  0
  7  9  1  0
 10 11  2  0
 11 12  1  0
 12 13  1  6
 14 15  2  0
 14 16  1  0
M  END
>  <MODEL>  (18) 
       2

$$$$
../data/cho_sim50/24962614.pdb
     RDKit          3D

 18 18  0  0  0  0  0  0  0  0999 V2000
   -4.9460    1.1220    0.7450 C   0  0  0  0  0  0  0  0  0  0  0  0
   -4.2320   -0.0690    0.1530 C   0  0  0  0  0  0  0  0  0  0  0  0
   -4.9460   -1.3190    0.5670 C   0  0  0  0  0  0  0  0  0  0  0  0
   -2.8630   -0.0790    0.4300 O   0  0  0  0  0  0  0  0  0  0  0  0
   -1.8650    0.0130   -0.4960 C   0  0  0  0  0  0  0  0  0  0  0  0
   -2.1630    0.1150   -1.7020 O   0  0  0  0  0  0  0  0  0  0  0  0
   -0.4560   -0.0100   -0.0560 C   0  0  0  0  0  0  0  0  0  0  0  0
    0.5270    0.0770   -0.9310 C   0  0  0  0  0  0  0  0  0  0  0  0
    1.9500    0.0620   -0.5850 C   0  0  0  0  0  0  0  0  0  0  0  0
    2.4370   -0.0440    0.6920 C   0  0  0  0  0  0  0  0  0  0  0  0
    3.7350   -0.0520    0.9430 O   0  0  0  0  0  0  0  0  0  0  0  0
    4.6610    0.0380    0.0230 C   0  0  0  0  0  0  0  0  0  0  0  0
    6.0920    0.0230    0.3720 C   0  0  0  0  0  0  0  0  0  0  0  0
    6.9750    0.1080   -0.4950 O   0  0  0  0  0  0  0  0  0  0  0  0
    6.4600   -0.0900    1.7040 O   0  0  0  0  0  0  0  0  0  0  0  0
    4.2520    0.1480   -1.2880 C   0  0  0  0  0  0  0  0  0  0  0  0
    2.9110    0.1610   -1.5990 C   0  0  0  0  0  0  0  0  0  0  0  0
    2.5030    0.2600   -2.7830 O   0  0  0  0  0  0  0  0  0  0  0  0
  1  2  1  0
  2  3  1  0
  2  4  1  0
  4  5  1  0
  5  6  2  0
  5  7  1  0
  7  8  2  0
  8  9  1  0
  9 10  2  0
  9 17  1  0
 10 11  1  0
 11 12  1  0
 12 13  1  0
 12 16  2  0
 13 14  2  0
 13 15  1  0
 16 17  1  0
 17 18  2  0
M  END
>  <MODEL>  (19) 
       1

$$$$
../data/cho_sim50/24962614.pdb
     RDKit          3D

 18 18  0  0  0  0  0  0  0  0999 V2000
   -5.1430    0.3560    0.2650 C   0  0  0  0  0  0  0  0  0  0  0  0
   -4.1870   -0.3680   -0.6550 C   0  0  0  0  0  0  0  0  0  0  0  0
   -4.7800   -1.7050   -1.0410 C   0  0  0  0  0  0  0  0  0  0  0  0
   -2.9050   -0.5190   -0.0550 O   0  0  0  0  0  0  0  0  0  0  0  0
   -1.7640    0.0430   -0.6060 C   0  0  0  0  0  0  0  0  0  0  0  0
   -1.8960    0.6950   -1.6610 O   0  0  0  0  0  0  0  0  0  0  0  0
   -0.4420   -0.1010   -0.0050 C   0  0  0  0  0  0  0  0  0  0  0  0
    0.5790    0.4690   -0.6030 C   0  0  0  0  0  0  0  0  0  0  0  0
    1.9470    0.4440   -0.1740 C   0  0  0  0  0  0  0  0  0  0  0  0
    2.9130    1.1060   -0.9320 C   0  0  0  0  0  0  0  0  0  0  0  0
    4.1840    1.1430   -0.6280 O   0  0  0  0  0  0  0  0  0  0  0  0
    4.6380    0.5390    0.4430 C   0  0  0  0  0  0  0  0  0  0  0  0
    6.0700    0.5960    0.7630 C   0  0  0  0  0  0  0  0  0  0  0  0
    6.8600    1.2210    0.0130 O   0  0  0  0  0  0  0  0  0  0  0  0
    6.6030   -0.0200    1.8750 O   0  0  0  0  0  0  0  0  0  0  0  0
    3.7540   -0.1270    1.2320 C   0  0  0  0  0  0  0  0  0  0  0  0
    2.3790   -0.1910    0.9400 C   0  0  0  0  0  0  0  0  0  0  0  0
    1.6300   -0.8210    1.7100 O   0  0  0  0  0  0  0  0  0  0  0  0
  1  2  1  0
  2  3  1  0
  2  4  1  0
  4  5  1  0
  5  6  2  0
  5  7  1  0
  7  8  2  0
  8  9  1  0
  9 10  2  0
  9 17  1  0
 10 11  1  0
 11 12  1  0
 12 13  1  0
 12 16  2  0
 13 14  2  0
 13 15  1  0
 16 17  1  0
 17 18  2  0
M  END
>  <MODEL>  (20) 
       2

$$$$
../data/cho_sim50/44123452.pdb
     RDKit          3D

 16 16  0  0  1  0  0  0  0  0999 V2000
   -2.3950    0.6390   -1.6900 C   0  0  0  0  0  0  0  0  0  0  0  0
   -2.4270    0.0250   -0.5340 C   0  0  0  0  0  0  0  0  0  0  0  0
   -1.4630   -0.8880   -0.2150 O   0  0  0  0  0  0  0  0  0  0  0  0
   -0.3130   -0.5970    0.5760 C   0  0  2  0  0  0  0  0  0  0  0  0
    0.4420    0.4510   -0.1100 C   0  0  0  0  0  0  0  0  0  0  0  0
    1.7140    0.5990   -0.4460 C   0  0  0  0  0  0  0  0  0  0  0  0
    2.0920    1.8190   -1.1410 C   0  0  0  0  0  0  0  0  0  0  0  0
    3.2780    1.9980   -1.4760 O   0  0  0  0  0  0  0  0  0  0  0  0
    1.1320    2.7590   -1.4210 O   0  0  0  0  0  0  0  0  0  0  0  0
    2.7480   -0.3890   -0.1580 C   0  0  0  0  0  0  0  0  0  0  0  0
    2.7810   -1.4140    0.6920 C   0  0  0  0  0  0  0  0  0  0  0  0
    1.6580   -1.7850    1.5980 C   0  0  0  0  0  0  0  0  0  0  0  0
    0.4140   -1.8760    0.7860 C   0  0  0  0  0  0  0  0  0  0  0  0
   -3.4820    0.3040    0.4250 C   0  0  0  0  0  0  0  0  0  0  0  0
   -3.5340   -0.2710    1.5390 O   0  0  0  0  0  0  0  0  0  0  0  0
   -4.4770    1.2270    0.1310 O   0  0  0  0  0  0  0  0  0  0  0  0
  1  2  2  0
  2  3  1  0
  2 14  1  0
  4  3  1  6
  4  5  1  0
  4 13  1  0
  5  6  2  0
  6  7  1  0
  6 10  1  0
  7  8  2  0
  7  9  1  0
 10 11  2  0
 11 12  1  0
 12 13  1  0
 14 15  2  0
 14 16  1  0
M  END
>  <MODEL>  (21) 
       1

$$$$
../data/cho_sim50/44123452.pdb
     RDKit          3D

 16 16  0  0  1  0  0  0  0  0999 V2000
   -2.6510   -2.1160    1.9520 C   0  0  0  0  0  0  0  0  0  0  0  0
   -2.4130   -1.0980    1.1040 C   0  0  0  0  0  0  0  0  0  0  0  0
   -1.2650   -0.8830    0.6080 O   0  0  0  0  0  0  0  0  0  0  0  0
   -0.0870   -0.6770    0.0800 C   0  0  2  0  0  0  0  0  0  0  0  0
    0.8140    0.2940    0.7720 C   0  0  0  0  0  0  0  0  0  0  0  0
    1.8390    0.9700    0.3210 C   0  0  0  0  0  0  0  0  0  0  0  0
    2.5240    1.8550    1.2730 C   0  0  0  0  0  0  0  0  0  0  0  0
    2.1340    1.9460    2.4540 O   0  0  0  0  0  0  0  0  0  0  0  0
    3.6200    2.6150    0.8960 O   0  0  0  0  0  0  0  0  0  0  0  0
    2.3710    0.9340   -1.0320 C   0  0  0  0  0  0  0  0  0  0  0  0
    2.0430    0.1950   -2.0870 C   0  0  0  0  0  0  0  0  0  0  0  0
    0.9880   -0.8490   -2.1740 C   0  0  0  0  0  0  0  0  0  0  0  0
   -0.2100   -0.3190   -1.3980 C   0  0  0  0  0  0  0  0  0  0  0  0
   -3.6050   -0.2670    0.8110 C   0  0  0  0  0  0  0  0  0  0  0  0
   -4.7350   -0.4930    1.3100 O   0  0  0  0  0  0  0  0  0  0  0  0
   -3.5230    0.8280   -0.0530 O   0  0  0  0  0  0  0  0  0  0  0  0
  1  2  2  0
  2  3  1  0
  2 14  1  0
  4  3  1  1
  4  5  1  0
  4 13  1  0
  5  6  2  0
  6  7  1  0
  6 10  1  0
  7  8  2  0
  7  9  1  0
 10 11  2  0
 11 12  1  0
 12 13  1  0
 14 15  2  0
 14 16  1  0
M  END
>  <MODEL>  (22) 
       2

$$$$
../data/cho_sim50/44329975.pdb
     RDKit          3D

 13 13  0  0  1  0  0  0  0  0999 V2000
    1.8790    1.7850    0.5970 C   0  0  0  0  0  0  0  0  0  0  0  0
    1.7960    0.6520   -0.0720 C   0  0  0  0  0  0  0  0  0  0  0  0
    0.7310    0.4550   -0.9100 O   0  0  0  0  0  0  0  0  0  0  0  0
   -0.2860   -0.5440   -0.6350 C   0  0  2  0  0  0  0  0  0  0  0  0
   -1.2160   -0.4280   -1.7500 C   0  0  0  0  0  0  0  0  0  0  0  0
   -2.4680   -0.0790   -1.5810 C   0  0  0  0  0  0  0  0  0  0  0  0
   -3.0030    0.2140   -0.2600 C   0  0  0  0  0  0  0  0  0  0  0  0
   -2.2010    0.1220    0.7840 C   0  0  0  0  0  0  0  0  0  0  0  0
   -0.7960   -0.2580    0.7070 C   0  0  1  0  0  0  0  0  0  0  0  0
   -0.5480   -1.3660    1.5780 O   0  0  0  0  0  0  0  0  0  0  0  0
    2.8330   -0.3480    0.1000 C   0  0  0  0  0  0  0  0  0  0  0  0
    2.7530   -1.4140   -0.5310 O   0  0  0  0  0  0  0  0  0  0  0  0
    3.9050   -0.1340    0.9530 O   0  0  0  0  0  0  0  0  0  0  0  0
  1  2  2  0
  2  3  1  0
  2 11  1  0
  4  3  1  6
  4  5  1  0
  4  9  1  0
  5  6  2  0
  6  7  1  0
  7  8  2  0
  8  9  1  0
  9 10  1  1
 11 12  2  0
 11 13  1  0
M  END
>  <MODEL>  (23) 
       1

$$$$
../data/cho_sim50/44329975.pdb
     RDKit          3D

 13 13  0  0  1  0  0  0  0  0999 V2000
    1.4490    2.2190    0.7430 C   0  0  0  0  0  0  0  0  0  0  0  0
    0.2120    1.8040    0.8850 C   0  0  0  0  0  0  0  0  0  0  0  0
   -0.4500    1.3120   -0.2250 O   0  0  0  0  0  0  0  0  0  0  0  0
    0.1810    0.2030   -0.9370 C   0  0  2  0  0  0  0  0  0  0  0  0
   -0.6440   -0.1790   -2.0610 C   0  0  0  0  0  0  0  0  0  0  0  0
   -1.1860   -1.3610   -2.2400 C   0  0  0  0  0  0  0  0  0  0  0  0
   -0.9330   -2.3760   -1.2160 C   0  0  0  0  0  0  0  0  0  0  0  0
   -0.2030   -2.1260   -0.1700 C   0  0  0  0  0  0  0  0  0  0  0  0
    0.4180   -0.8380    0.0750 C   0  0  1  0  0  0  0  0  0  0  0  0
    1.8210   -1.1180    0.1590 O   0  0  0  0  0  0  0  0  0  0  0  0
   -0.4090    1.8780    2.1990 C   0  0  0  0  0  0  0  0  0  0  0  0
    0.2230    2.3290    3.1790 O   0  0  0  0  0  0  0  0  0  0  0  0
   -1.7180    1.4560    2.4250 O   0  0  0  0  0  0  0  0  0  0  0  0
  1  2  2  0
  2  3  1  0
  2 11  1  0
  4  3  1  1
  4  5  1  0
  4  9  1  0
  5  6  2  0
  6  7  1  0
  7  8  2  0
  8  9  1  0
  9 10  1  6
 11 12  2  0
 11 13  1  0
M  END
>  <MODEL>  (24) 
       2

$$$$
../data/cho_sim50/44329976.pdb
     RDKit          3D

 13 13  0  0  1  0  0  0  0  0999 V2000
    2.1620   -0.5160    1.1580 C   0  0  0  0  0  0  0  0  0  0  0  0
    1.9500    0.1990    0.0860 C   0  0  0  0  0  0  0  0  0  0  0  0
    0.7380    0.7630   -0.2330 O   0  0  0  0  0  0  0  0  0  0  0  0
   -0.4590    0.2170    0.3400 C   0  0  2  0  0  0  0  0  0  0  0  0
   -0.6080   -1.1850   -0.0420 C   0  0  0  0  0  0  0  0  0  0  0  0
   -1.6770   -1.6800   -0.6060 C   0  0  0  0  0  0  0  0  0  0  0  0
   -2.8290   -0.8650   -0.9080 C   0  0  0  0  0  0  0  0  0  0  0  0
   -2.7740    0.4100   -0.5950 C   0  0  0  0  0  0  0  0  0  0  0  0
   -1.6270    1.0620    0.0390 C   0  0  1  0  0  0  0  0  0  0  0  0
   -2.1120    1.7080    1.2070 O   0  0  0  0  0  0  0  0  0  0  0  0
    3.0510    0.4300   -0.8490 C   0  0  0  0  0  0  0  0  0  0  0  0
    2.9260    1.1060   -1.9010 O   0  0  0  0  0  0  0  0  0  0  0  0
    4.3330   -0.1020   -0.6180 O   0  0  0  0  0  0  0  0  0  0  0  0
  1  2  2  0
  2  3  1  0
  2 11  1  0
  4  3  1  6
  4  5  1  0
  4  9  1  0
  5  6  2  0
  6  7  1  0
  7  8  2  0
  8  9  1  0
  9 10  1  1
 11 12  2  0
 11 13  1  0
M  END
>  <MODEL>  (25) 
       1

$$$$
../data/cho_sim50/44329976.pdb
     RDKit          3D

 13 13  0  0  1  0  0  0  0  0999 V2000
   -1.6120    0.9660   -2.3940 C   0  0  0  0  0  0  0  0  0  0  0  0
   -1.6410    0.2760   -1.2740 C   0  0  0  0  0  0  0  0  0  0  0  0
   -0.5190   -0.4240   -0.9190 O   0  0  0  0  0  0  0  0  0  0  0  0
    0.1380   -0.3430    0.3200 C   0  0  2  0  0  0  0  0  0  0  0  0
    0.5860    1.0400    0.5370 C   0  0  0  0  0  0  0  0  0  0  0  0
    1.8230    1.3820    0.7540 C   0  0  0  0  0  0  0  0  0  0  0  0
    2.8890    0.4030    0.8000 C   0  0  0  0  0  0  0  0  0  0  0  0
    2.5630   -0.8590    0.6150 C   0  0  0  0  0  0  0  0  0  0  0  0
    1.2100   -1.3690    0.3630 C   0  0  1  0  0  0  0  0  0  0  0  0
    0.9550   -2.3480    1.3350 O   0  0  0  0  0  0  0  0  0  0  0  0
   -2.8650    0.2920   -0.4690 C   0  0  0  0  0  0  0  0  0  0  0  0
   -3.8530    0.9440   -0.8380 O   0  0  0  0  0  0  0  0  0  0  0  0
   -2.9660   -0.4130    0.7250 O   0  0  0  0  0  0  0  0  0  0  0  0
  1  2  2  0
  2  3  1  0
  2 11  1  0
  4  3  1  6
  4  5  1  0
  4  9  1  0
  5  6  2  0
  6  7  1  0
  7  8  2  0
  8  9  1  0
  9 10  1  1
 11 12  2  0
 11 13  1  0
M  END
>  <MODEL>  (26) 
       2

$$$$
../data/cho_sim50/54448451.pdb
     RDKit          3D

 16 16  0  0  1  0  0  0  0  0999 V2000
    2.9500   -1.1730   -0.8230 C   0  0  0  0  0  0  0  0  0  0  0  0
    2.2600   -0.2750   -0.1410 C   0  0  0  0  0  0  0  0  0  0  0  0
    1.4910   -0.6750    0.8890 O   0  0  0  0  0  0  0  0  0  0  0  0
    0.0760   -0.7650    0.9700 C   0  0  1  0  0  0  0  0  0  0  0  0
   -0.6020    0.4920    0.7880 C   0  0  0  0  0  0  0  0  0  0  0  0
   -1.4740    0.7660   -0.1450 C   0  0  0  0  0  0  0  0  0  0  0  0
   -2.1210    2.0810   -0.2680 C   0  0  0  0  0  0  0  0  0  0  0  0
   -1.8570    3.0100    0.5330 O   0  0  0  0  0  0  0  0  0  0  0  0
   -3.0280    2.3040   -1.2690 O   0  0  0  0  0  0  0  0  0  0  0  0
   -1.8320   -0.3030   -1.0570 C   0  0  0  0  0  0  0  0  0  0  0  0
   -1.3060   -1.4910   -0.9440 C   0  0  0  0  0  0  0  0  0  0  0  0
   -0.3370   -1.8730    0.0730 C   0  0  2  0  0  0  0  0  0  0  0  0
   -0.9890   -2.9000    0.8350 O   0  0  0  0  0  0  0  0  0  0  0  0
    2.3770    1.1100   -0.5510 C   0  0  0  0  0  0  0  0  0  0  0  0
    3.1160    1.4570   -1.5390 O   0  0  0  0  0  0  0  0  0  0  0  0
    1.7260    2.1670    0.0600 O   0  0  0  0  0  0  0  0  0  0  0  0
  1  2  2  0
  2  3  1  0
  2 14  1  0
  4  3  1  6
  4  5  1  0
  4 12  1  0
  5  6  2  0
  6  7  1  0
  6 10  1  0
  7  8  2  0
  7  9  1  0
 10 11  2  0
 11 12  1  0
 12 13  1  1
 14 15  2  0
 14 16  1  0
M  END
>  <MODEL>  (27) 
       1

$$$$
../data/cho_sim50/54448451.pdb
     RDKit          3D

 16 16  0  0  1  0  0  0  0  0999 V2000
   -2.2780    0.0390    2.1910 C   0  0  0  0  0  0  0  0  0  0  0  0
   -2.2700    0.4190    0.9290 C   0  0  0  0  0  0  0  0  0  0  0  0
   -1.0730    0.8680    0.4140 O   0  0  0  0  0  0  0  0  0  0  0  0
   -0.2820    0.1530   -0.5090 C   0  0  1  0  0  0  0  0  0  0  0  0
    0.9000    0.9890   -0.7910 C   0  0  0  0  0  0  0  0  0  0  0  0
    2.1410    0.6430   -0.5650 C   0  0  0  0  0  0  0  0  0  0  0  0
    3.2500    1.5420   -0.8780 C   0  0  0  0  0  0  0  0  0  0  0  0
    2.9960    2.6810   -1.3810 O   0  0  0  0  0  0  0  0  0  0  0  0
    4.5360    1.1300   -0.6200 O   0  0  0  0  0  0  0  0  0  0  0  0
    2.4440   -0.6570    0.0100 C   0  0  0  0  0  0  0  0  0  0  0  0
    1.4440   -1.4680    0.2930 C   0  0  0  0  0  0  0  0  0  0  0  0
    0.0230   -1.1860    0.0820 C   0  0  2  0  0  0  0  0  0  0  0  0
   -0.4820   -2.2050   -0.7490 O   0  0  0  0  0  0  0  0  0  0  0  0
   -3.4990    0.3450    0.1670 C   0  0  0  0  0  0  0  0  0  0  0  0
   -4.5860   -0.0660    0.6490 O   0  0  0  0  0  0  0  0  0  0  0  0
   -3.5580    0.7360   -1.1850 O   0  0  0  0  0  0  0  0  0  0  0  0
  1  2  2  0
  2  3  1  0
  2 14  1  0
  4  3  1  1
  4  5  1  0
  4 12  1  0
  5  6  2  0
  6  7  1  0
  6 10  1  0
  7  8  2  0
  7  9  1  0
 10 11  2  0
 11 12  1  0
 12 13  1  6
 14 15  2  0
 14 16  1  0
M  END
>  <MODEL>  (28) 
       2

$$$$
../data/cho_sim50/54448451.pdb
     RDKit          3D

 16 16  0  0  1  0  0  0  0  0999 V2000
    3.0630    0.3580    0.4540 C   0  0  0  0  0  0  0  0  0  0  0  0
    2.1990    0.6830   -0.4890 C   0  0  0  0  0  0  0  0  0  0  0  0
    1.3370   -0.2830   -0.9700 O   0  0  0  0  0  0  0  0  0  0  0  0
    0.4110   -0.8330   -0.0090 C   0  0  1  0  0  0  0  0  0  0  0  0
   -0.4440    0.1980    0.5460 C   0  0  0  0  0  0  0  0  0  0  0  0
   -1.7450    0.0940    0.6500 C   0  0  0  0  0  0  0  0  0  0  0  0
   -2.5760    1.1580    1.2170 C   0  0  0  0  0  0  0  0  0  0  0  0
   -3.8230    1.0440    1.3100 O   0  0  0  0  0  0  0  0  0  0  0  0
   -2.0190    2.3410    1.6760 O   0  0  0  0  0  0  0  0  0  0  0  0
   -2.3600   -1.1410    0.1720 C   0  0  0  0  0  0  0  0  0  0  0  0
   -1.6640   -2.1200   -0.3440 C   0  0  0  0  0  0  0  0  0  0  0  0
   -0.2220   -2.0570   -0.4840 C   0  0  2  0  0  0  0  0  0  0  0  0
    0.3960   -3.2290    0.0320 O   0  0  0  0  0  0  0  0  0  0  0  0
    2.1240    2.0260   -1.0410 C   0  0  0  0  0  0  0  0  0  0  0  0
    2.8850    2.9570   -0.6450 O   0  0  0  0  0  0  0  0  0  0  0  0
    1.2100    2.3270   -2.0250 O   0  0  0  0  0  0  0  0  0  0  0  0
  1  2  2  0
  2  3  1  0
  2 14  1  0
  4  3  1  6
  4  5  1  0
  4 12  1  0
  5  6  2  0
  6  7  1  0
  6 10  1  0
  7  8  2  0
  7  9  1  0
 10 11  2  0
 11 12  1  0
 12 13  1  1
 14 15  2  0
 14 16  1  0
M  END
>  <MODEL>  (29) 
       3

$$$$
../data/cho_sim50/57759058.pdb
     RDKit          3D

 16 16  0  0  1  0  0  0  0  0999 V2000
   -2.0300   -1.8440   -1.7770 C   0  0  0  0  0  0  0  0  0  0  0  0
   -2.0370   -0.6180   -1.3030 C   0  0  0  0  0  0  0  0  0  0  0  0
   -0.8810    0.1510   -1.3470 O   0  0  0  0  0  0  0  0  0  0  0  0
   -0.2700    0.4170   -0.0650 C   0  0  2  0  0  0  0  0  0  0  0  0
    0.9290    1.2280   -0.2310 C   0  0  0  0  0  0  0  0  0  0  0  0
    2.1110    0.9560    0.2840 C   0  0  0  0  0  0  0  0  0  0  0  0
    3.2650    1.8090    0.0790 C   0  0  0  0  0  0  0  0  0  0  0  0
    3.1470    2.8350   -0.6060 O   0  0  0  0  0  0  0  0  0  0  0  0
    4.4720    1.4810    0.6370 O   0  0  0  0  0  0  0  0  0  0  0  0
    2.1990   -0.2690    1.0780 C   0  0  0  0  0  0  0  0  0  0  0  0
    1.1830   -1.0570    1.2740 C   0  0  0  0  0  0  0  0  0  0  0  0
   -0.1370   -0.8090    0.7310 C   0  0  1  0  0  0  0  0  0  0  0  0
   -1.1360   -0.9020    1.7370 O   0  0  0  0  0  0  0  0  0  0  0  0
   -3.2490   -0.0690   -0.7350 C   0  0  0  0  0  0  0  0  0  0  0  0
   -4.2920   -0.7430   -0.6880 O   0  0  0  0  0  0  0  0  0  0  0  0
   -3.3110    1.2260   -0.2190 O   0  0  0  0  0  0  0  0  0  0  0  0
  1  2  2  0
  2  3  1  0
  2 14  1  0
  4  3  1  6
  4  5  1  0
  4 12  1  0
  5  6  2  0
  6  7  1  0
  6 10  1  0
  7  8  2  0
  7  9  1  0
 10 11  2  0
 11 12  1  0
 12 13  1  1
 14 15  2  0
 14 16  1  0
M  END
>  <MODEL>  (30) 
       1

$$$$
../data/cho_sim50/57759058.pdb
     RDKit          3D

 16 16  0  0  1  0  0  0  0  0999 V2000
    1.6320    1.5740    0.0770 C   0  0  0  0  0  0  0  0  0  0  0  0
    1.9390    0.3950   -0.4250 C   0  0  0  0  0  0  0  0  0  0  0  0
    1.2460   -0.2510   -1.4320 O   0  0  0  0  0  0  0  0  0  0  0  0
   -0.1060   -0.6660   -1.1870 C   0  0  2  0  0  0  0  0  0  0  0  0
   -0.9880    0.4720   -0.8710 C   0  0  0  0  0  0  0  0  0  0  0  0
   -1.7700    0.5490    0.1990 C   0  0  0  0  0  0  0  0  0  0  0  0
   -2.6110    1.7280    0.4230 C   0  0  0  0  0  0  0  0  0  0  0  0
   -3.3420    1.7810    1.4380 O   0  0  0  0  0  0  0  0  0  0  0  0
   -2.6260    2.7970   -0.4590 O   0  0  0  0  0  0  0  0  0  0  0  0
   -1.8030   -0.5400    1.1440 C   0  0  0  0  0  0  0  0  0  0  0  0
   -1.0570   -1.6010    0.9360 C   0  0  0  0  0  0  0  0  0  0  0  0
   -0.1600   -1.7920   -0.2110 C   0  0  1  0  0  0  0  0  0  0  0  0
   -0.5770   -2.9880   -0.8450 O   0  0  0  0  0  0  0  0  0  0  0  0
    3.1110   -0.3000    0.1220 C   0  0  0  0  0  0  0  0  0  0  0  0
    3.4970   -1.4200   -0.2760 O   0  0  0  0  0  0  0  0  0  0  0  0
    3.8820    0.2750    1.1510 O   0  0  0  0  0  0  0  0  0  0  0  0
  1  2  2  0
  2  3  1  0
  2 14  1  0
  4  3  1  1
  4  5  1  0
  4 12  1  0
  5  6  2  0
  6  7  1  0
  6 10  1  0
  7  8  2  0
  7  9  1  0
 10 11  2  0
 11 12  1  0
 12 13  1  6
 14 15  2  0
 14 16  1  0
M  END
>  <MODEL>  (31) 
       2

$$$$
../data/cho_sim50/57759059.pdb
     RDKit          3D

 16 16  0  0  1  0  0  0  0  0999 V2000
   -3.0040   -0.6600   -0.7950 C   0  0  0  0  0  0  0  0  0  0  0  0
   -2.4730    0.0530    0.1940 C   0  0  0  0  0  0  0  0  0  0  0  0
   -1.2730    0.6930    0.0760 O   0  0  0  0  0  0  0  0  0  0  0  0
   -0.2100    0.2130   -0.7660 C   0  0  1  0  0  0  0  0  0  0  0  0
    0.9490    1.0800   -0.7050 C   0  0  0  0  0  0  0  0  0  0  0  0
    2.1560    0.6650   -0.4350 C   0  0  0  0  0  0  0  0  0  0  0  0
    3.3020    1.5980   -0.3890 C   0  0  0  0  0  0  0  0  0  0  0  0
    3.0760    2.8170   -0.6180 O   0  0  0  0  0  0  0  0  0  0  0  0
    4.5710    1.1640   -0.1060 O   0  0  0  0  0  0  0  0  0  0  0  0
    2.3680   -0.7490   -0.1650 C   0  0  0  0  0  0  0  0  0  0  0  0
    1.3760   -1.6010   -0.1850 C   0  0  0  0  0  0  0  0  0  0  0  0
    0.0040   -1.2070   -0.4750 C   0  0  1  0  0  0  0  0  0  0  0  0
   -0.7220   -1.5420    0.7270 O   0  0  0  0  0  0  0  0  0  0  0  0
   -3.1840    0.1690    1.4620 C   0  0  0  0  0  0  0  0  0  0  0  0
   -4.2950   -0.4080    1.6090 O   0  0  0  0  0  0  0  0  0  0  0  0
   -2.6740    0.8990    2.5220 O   0  0  0  0  0  0  0  0  0  0  0  0
  1  2  2  0
  2  3  1  0
  2 14  1  0
  4  3  1  1
  4  5  1  0
  4 12  1  0
  5  6  2  0
  6  7  1  0
  6 10  1  0
  7  8  2  0
  7  9  1  0
 10 11  2  0
 11 12  1  0
 12 13  1  1
 14 15  2  0
 14 16  1  0
M  END
>  <MODEL>  (32) 
       1

$$$$
../data/cho_sim50/57759059.pdb
     RDKit          3D

 16 16  0  0  1  0  0  0  0  0999 V2000
   -2.8660   -0.7290    0.8750 C   0  0  0  0  0  0  0  0  0  0  0  0
   -2.3230    0.1360    0.0350 C   0  0  0  0  0  0  0  0  0  0  0  0
   -1.3470   -0.3150   -0.8340 O   0  0  0  0  0  0  0  0  0  0  0  0
   -0.1640   -0.8950   -0.2470 C   0  0  2  0  0  0  0  0  0  0  0  0
    0.5210    0.0570    0.6060 C   0  0  0  0  0  0  0  0  0  0  0  0
    1.7830    0.3550    0.4780 C   0  0  0  0  0  0  0  0  0  0  0  0
    2.4160    1.3320    1.3820 C   0  0  0  0  0  0  0  0  0  0  0  0
    3.6310    1.6180    1.2570 O   0  0  0  0  0  0  0  0  0  0  0  0
    1.6920    1.9420    2.3680 O   0  0  0  0  0  0  0  0  0  0  0  0
    2.5590   -0.2850   -0.5750 C   0  0  0  0  0  0  0  0  0  0  0  0
    2.0180   -1.1530   -1.3960 C   0  0  0  0  0  0  0  0  0  0  0  0
    0.6100   -1.5250   -1.3020 C   0  0  1  0  0  0  0  0  0  0  0  0
    0.4670   -2.9390   -1.2220 O   0  0  0  0  0  0  0  0  0  0  0  0
   -2.7080    1.5350   -0.0120 C   0  0  0  0  0  0  0  0  0  0  0  0
   -3.6010    1.9350    0.7870 O   0  0  0  0  0  0  0  0  0  0  0  0
   -2.0920    2.3730   -0.9190 O   0  0  0  0  0  0  0  0  0  0  0  0
  1  2  2  0
  2  3  1  0
  2 14  1  0
  4  3  1  6
  4  5  1  0
  4 12  1  0
  5  6  2  0
  6  7  1  0
  6 10  1  0
  7  8  2  0
  7  9  1  0
 10 11  2  0
 11 12  1  0
 12 13  1  1
 14 15  2  0
 14 16  1  0
M  END
>  <MODEL>  (33) 
       2

$$$$
../data/cho_sim50/57759059.pdb
     RDKit          3D

 16 16  0  0  1  0  0  0  0  0999 V2000
   -1.8980    1.6600   -0.9880 C   0  0  0  0  0  0  0  0  0  0  0  0
   -2.0630    0.6950   -0.0960 C   0  0  0  0  0  0  0  0  0  0  0  0
   -1.3500   -0.4710   -0.0930 O   0  0  0  0  0  0  0  0  0  0  0  0
   -0.1000   -0.6200   -0.7790 C   0  0  1  0  0  0  0  0  0  0  0  0
    0.8990    0.3100   -0.2910 C   0  0  0  0  0  0  0  0  0  0  0  0
    2.0590   -0.0330    0.1960 C   0  0  0  0  0  0  0  0  0  0  0  0
    3.0200    0.9920    0.6720 C   0  0  0  0  0  0  0  0  0  0  0  0
    4.1170    0.6030    1.1290 O   0  0  0  0  0  0  0  0  0  0  0  0
    2.6910    2.3180    0.6030 O   0  0  0  0  0  0  0  0  0  0  0  0
    2.4440   -1.4290    0.2850 C   0  0  0  0  0  0  0  0  0  0  0  0
    1.5870   -2.3190   -0.1400 C   0  0  0  0  0  0  0  0  0  0  0  0
    0.2690   -2.0400   -0.7000 C   0  0  1  0  0  0  0  0  0  0  0  0
   -0.6580   -2.8040    0.0410 O   0  0  0  0  0  0  0  0  0  0  0  0
   -3.0700    0.8850    0.9520 C   0  0  0  0  0  0  0  0  0  0  0  0
   -3.2900    0.0190    1.8370 O   0  0  0  0  0  0  0  0  0  0  0  0
   -3.8380    2.0460    1.0170 O   0  0  0  0  0  0  0  0  0  0  0  0
  1  2  2  0
  2  3  1  0
  2 14  1  0
  4  3  1  1
  4  5  1  0
  4 12  1  0
  5  6  2  0
  6  7  1  0
  6 10  1  0
  7  8  2  0
  7  9  1  0
 10 11  2  0
 11 12  1  0
 12 13  1  1
 14 15  2  0
 14 16  1  0
M  END
>  <MODEL>  (34) 
       3

$$$$
../data/cho_sim50/57759059.pdb
     RDKit          3D

 16 16  0  0  1  0  0  0  0  0999 V2000
    2.8940   -0.4590    1.1030 C   0  0  0  0  0  0  0  0  0  0  0  0
    2.3000    0.2660    0.1700 C   0  0  0  0  0  0  0  0  0  0  0  0
    1.6920   -0.3400   -0.8670 O   0  0  0  0  0  0  0  0  0  0  0  0
    0.3200   -0.7170   -1.0000 C   0  0  2  0  0  0  0  0  0  0  0  0
   -0.5790    0.4110   -0.9160 C   0  0  0  0  0  0  0  0  0  0  0  0
   -1.6370    0.4380   -0.1480 C   0  0  0  0  0  0  0  0  0  0  0  0
   -2.5280    1.5960   -0.0790 C   0  0  0  0  0  0  0  0  0  0  0  0
   -2.2660    2.5910   -0.7780 O   0  0  0  0  0  0  0  0  0  0  0  0
   -3.6340    1.6090    0.7310 O   0  0  0  0  0  0  0  0  0  0  0  0
   -1.9710   -0.7390    0.6330 C   0  0  0  0  0  0  0  0  0  0  0  0
   -1.2260   -1.8250    0.5710 C   0  0  0  0  0  0  0  0  0  0  0  0
   -0.0380   -1.9170   -0.2740 C   0  0  1  0  0  0  0  0  0  0  0  0
   -0.1430   -3.0320   -1.1550 O   0  0  0  0  0  0  0  0  0  0  0  0
    2.3270    1.7070    0.2990 C   0  0  0  0  0  0  0  0  0  0  0  0
    2.9110    2.2150    1.2980 O   0  0  0  0  0  0  0  0  0  0  0  0
    1.7650    2.6090   -0.5850 O   0  0  0  0  0  0  0  0  0  0  0  0
  1  2  2  0
  2  3  1  0
  2 14  1  0
  4  3  1  1
  4  5  1  0
  4 12  1  0
  5  6  2  0
  6  7  1  0
  6 10  1  0
  7  8  2  0
  7  9  1  0
 10 11  2  0
 11 12  1  0
 12 13  1  6
 14 15  2  0
 14 16  1  0
M  END
>  <MODEL>  (35) 
       4

$$$$
../data/cho_sim50/59477064.pdb
     RDKit          3D

 16 16  0  0  1  0  0  0  0  0999 V2000
    2.9150   -0.4930   -1.4060 C   0  0  0  0  0  0  0  0  0  0  0  0
    2.4430   -0.0110   -0.2850 C   0  0  0  0  0  0  0  0  0  0  0  0
    1.2690    0.7210   -0.3220 O   0  0  0  0  0  0  0  0  0  0  0  0
    0.0780    0.2800    0.3610 C   0  0  1  0  0  0  0  0  0  0  0  0
   -0.9510    1.2980    0.0980 C   0  0  0  0  0  0  0  0  0  0  0  0
   -2.0960    1.0890   -0.5080 C   0  0  0  0  0  0  0  0  0  0  0  0
   -3.0570    2.1660   -0.7230 C   0  0  0  0  0  0  0  0  0  0  0  0
   -4.1450    1.9320   -1.3070 O   0  0  0  0  0  0  0  0  0  0  0  0
   -2.8210    3.4650   -0.3040 O   0  0  0  0  0  0  0  0  0  0  0  0
   -2.3730   -0.2620   -0.9580 C   0  0  0  0  0  0  0  0  0  0  0  0
   -1.5240   -1.2320   -0.7700 C   0  0  0  0  0  0  0  0  0  0  0  0
   -0.2260   -1.0900   -0.1050 C   0  0  2  0  0  0  0  0  0  0  0  0
   -0.1430   -2.0890    1.0700 C   0  0  0  0  0  0  0  0  0  0  0  0
    3.1350   -0.2360    0.9800 C   0  0  0  0  0  0  0  0  0  0  0  0
    4.1970   -0.8950    1.0300 O   0  0  0  0  0  0  0  0  0  0  0  0
    2.6390    0.2740    2.1700 O   0  0  0  0  0  0  0  0  0  0  0  0
  1  2  2  0
  2  3  1  0
  2 14  1  0
  4  3  1  6
  4  5  1  0
  4 12  1  0
  5  6  2  0
  6  7  1  0
  6 10  1  0
  7  8  2  0
  7  9  1  0
 10 11  2  0
 11 12  1  0
 12 13  1  1
 14 15  2  0
 14 16  1  0
M  END
>  <MODEL>  (36) 
       1

$$$$
../data/cho_sim50/59477064.pdb
     RDKit          3D

 16 16  0  0  1  0  0  0  0  0999 V2000
   -2.1450   -1.5520    1.1840 C   0  0  0  0  0  0  0  0  0  0  0  0
   -2.2190   -0.6150    0.2690 C   0  0  0  0  0  0  0  0  0  0  0  0
   -1.3010    0.4280    0.2080 O   0  0  0  0  0  0  0  0  0  0  0  0
   -0.0010    0.3340    0.7900 C   0  0  1  0  0  0  0  0  0  0  0  0
    0.7540   -0.7690    0.1980 C   0  0  0  0  0  0  0  0  0  0  0  0
    1.9660   -0.7200   -0.3150 C   0  0  0  0  0  0  0  0  0  0  0  0
    2.6110   -1.9130   -0.8800 C   0  0  0  0  0  0  0  0  0  0  0  0
    3.7480   -1.8950   -1.3680 O   0  0  0  0  0  0  0  0  0  0  0  0
    1.9030   -3.0950   -0.8580 O   0  0  0  0  0  0  0  0  0  0  0  0
    2.6510    0.5690   -0.3020 C   0  0  0  0  0  0  0  0  0  0  0  0
    2.0520    1.6020    0.2060 C   0  0  0  0  0  0  0  0  0  0  0  0
    0.7060    1.6410    0.7980 C   0  0  1  0  0  0  0  0  0  0  0  0
   -0.0800    2.7060    0.0210 C   0  0  0  0  0  0  0  0  0  0  0  0
   -3.2950   -0.6720   -0.7080 C   0  0  0  0  0  0  0  0  0  0  0  0
   -4.1460   -1.5920   -0.6930 O   0  0  0  0  0  0  0  0  0  0  0  0
   -3.4280    0.2970   -1.7080 O   0  0  0  0  0  0  0  0  0  0  0  0
  1  2  2  0
  2  3  1  0
  2 14  1  0
  4  3  1  6
  4  5  1  0
  4 12  1  0
  5  6  2  0
  6  7  1  0
  6 10  1  0
  7  8  2  0
  7  9  1  0
 10 11  2  0
 11 12  1  0
 12 13  1  6
 14 15  2  0
 14 16  1  0
M  END
>  <MODEL>  (37) 
       2

$$$$
../data/cho_sim50/59477064.pdb
     RDKit          3D

 16 16  0  0  1  0  0  0  0  0999 V2000
    2.3370    0.0030   -1.8640 C   0  0  0  0  0  0  0  0  0  0  0  0
    2.2440   -0.1620   -0.5590 C   0  0  0  0  0  0  0  0  0  0  0  0
    1.1580   -0.9040   -0.0770 O   0  0  0  0  0  0  0  0  0  0  0  0
    0.1860   -0.2340    0.7390 C   0  0  1  0  0  0  0  0  0  0  0  0
   -0.4100    0.8630   -0.0280 C   0  0  0  0  0  0  0  0  0  0  0  0
   -1.6790    1.0170   -0.2860 C   0  0  0  0  0  0  0  0  0  0  0  0
   -2.1360    2.1740   -1.0730 C   0  0  0  0  0  0  0  0  0  0  0  0
   -1.2970    3.0090   -1.4940 O   0  0  0  0  0  0  0  0  0  0  0  0
   -3.4680    2.3920   -1.3790 O   0  0  0  0  0  0  0  0  0  0  0  0
   -2.6230    0.0360    0.2130 C   0  0  0  0  0  0  0  0  0  0  0  0
   -2.1820   -0.9860    0.9130 C   0  0  0  0  0  0  0  0  0  0  0  0
   -0.7810   -1.2340    1.2470 C   0  0  1  0  0  0  0  0  0  0  0  0
   -0.4450   -2.6560    0.8010 C   0  0  0  0  0  0  0  0  0  0  0  0
    3.2160    0.3940    0.3720 C   0  0  0  0  0  0  0  0  0  0  0  0
    3.1110    0.2270    1.6090 O   0  0  0  0  0  0  0  0  0  0  0  0
    4.2900    1.1270   -0.0990 O   0  0  0  0  0  0  0  0  0  0  0  0
  1  2  2  0
  2  3  1  0
  2 14  1  0
  4  3  1  6
  4  5  1  0
  4 12  1  0
  5  6  2  0
  6  7  1  0
  6 10  1  0
  7  8  2  0
  7  9  1  0
 10 11  2  0
 11 12  1  0
 12 13  1  6
 14 15  2  0
 14 16  1  0
M  END
>  <MODEL>  (38) 
       3

$$$$
../data/cho_sim50/59477066.pdb
     RDKit          3D

 16 16  0  0  1  0  0  0  0  0999 V2000
   -2.9940   -1.3240   -0.7830 C   0  0  0  0  0  0  0  0  0  0  0  0
   -2.5170   -0.1060   -0.6400 C   0  0  0  0  0  0  0  0  0  0  0  0
   -1.1710    0.1520   -0.9070 O   0  0  0  0  0  0  0  0  0  0  0  0
   -0.1870   -0.5580   -0.0940 C   0  0  2  0  0  0  0  0  0  0  0  0
   -0.4490   -0.1640    1.3010 C   0  0  0  0  0  0  0  0  0  0  0  0
    0.6810    0.4030    2.0140 C   0  0  0  0  0  0  0  0  0  0  0  0
    1.8720    0.5760    1.5090 C   0  0  0  0  0  0  0  0  0  0  0  0
    2.1130    0.1710    0.1050 C   0  0  0  0  0  0  0  0  0  0  0  0
    3.4670    0.3880   -0.4100 C   0  0  0  0  0  0  0  0  0  0  0  0
    4.3790    0.8940    0.3110 O   0  0  0  0  0  0  0  0  0  0  0  0
    3.8410    0.0610   -1.7000 O   0  0  0  0  0  0  0  0  0  0  0  0
    1.1440   -0.3470   -0.6050 C   0  0  0  0  0  0  0  0  0  0  0  0
    1.4140   -0.7510   -2.0320 C   0  0  0  0  0  0  0  0  0  0  0  0
   -3.4240    0.9410   -0.2050 C   0  0  0  0  0  0  0  0  0  0  0  0
   -4.6280    0.6760    0.0260 O   0  0  0  0  0  0  0  0  0  0  0  0
   -3.0190    2.2620   -0.0240 O   0  0  0  0  0  0  0  0  0  0  0  0
  1  2  2  0
  2  3  1  0
  2 14  1  0
  4  3  1  6
  4  5  1  0
  4 12  1  0
  5  6  1  0
  6  7  2  0
  7  8  1  0
  8  9  1  0
  8 12  2  0
  9 10  2  0
  9 11  1  0
 12 13  1  0
 14 15  2  0
 14 16  1  0
M  END
>  <MODEL>  (39) 
       1

$$$$
../data/cho_sim50/59477066.pdb
     RDKit          3D

 16 16  0  0  1  0  0  0  0  0999 V2000
    1.6470    2.3660    1.8240 C   0  0  0  0  0  0  0  0  0  0  0  0
    1.8920    1.1170    1.4960 C   0  0  0  0  0  0  0  0  0  0  0  0
    0.8500    0.2800    1.1380 O   0  0  0  0  0  0  0  0  0  0  0  0
   -0.0750    0.6570    0.1440 C   0  0  1  0  0  0  0  0  0  0  0  0
    0.6000    0.8960   -1.1470 C   0  0  0  0  0  0  0  0  0  0  0  0
    0.0890    0.1290   -2.2860 C   0  0  0  0  0  0  0  0  0  0  0  0
   -0.8960   -0.7370   -2.2660 C   0  0  0  0  0  0  0  0  0  0  0  0
   -1.5770   -0.9870   -0.9890 C   0  0  0  0  0  0  0  0  0  0  0  0
   -2.6870   -1.9620   -0.9610 C   0  0  0  0  0  0  0  0  0  0  0  0
   -3.3510   -2.2760    0.0260 O   0  0  0  0  0  0  0  0  0  0  0  0
   -3.0050   -2.5810   -2.1870 O   0  0  0  0  0  0  0  0  0  0  0  0
   -1.1850   -0.3420    0.0880 C   0  0  0  0  0  0  0  0  0  0  0  0
   -1.9390   -0.6570    1.3610 C   0  0  0  0  0  0  0  0  0  0  0  0
    3.2810    0.6680    1.5270 C   0  0  0  0  0  0  0  0  0  0  0  0
    4.2140    1.4330    1.8530 O   0  0  0  0  0  0  0  0  0  0  0  0
    3.5280   -0.6590    1.1770 O   0  0  0  0  0  0  0  0  0  0  0  0
  1  2  2  0
  2  3  1  0
  2 14  1  0
  4  3  1  1
  4  5  1  0
  4 12  1  0
  5  6  1  0
  6  7  2  0
  7  8  1  0
  8  9  1  0
  8 12  2  0
  9 10  2  0
  9 11  1  0
 12 13  1  0
 14 15  2  0
 14 16  1  0
M  END
>  <MODEL>  (40) 
       2

$$$$
../data/cho_sim50/59477066.pdb
     RDKit          3D

 16 16  0  0  1  0  0  0  0  0999 V2000
    3.3510    0.2540   -0.7490 C   0  0  0  0  0  0  0  0  0  0  0  0
    2.3890    0.0850    0.1620 C   0  0  0  0  0  0  0  0  0  0  0  0
    1.5060   -0.9180    0.0290 O   0  0  0  0  0  0  0  0  0  0  0  0
    0.3120   -1.0340   -0.7220 C   0  0  1  0  0  0  0  0  0  0  0  0
   -0.2490   -2.4030   -0.5210 C   0  0  0  0  0  0  0  0  0  0  0  0
   -1.5990   -2.4960    0.0050 C   0  0  0  0  0  0  0  0  0  0  0  0
   -2.3870   -1.4900    0.2840 C   0  0  0  0  0  0  0  0  0  0  0  0
   -1.8330   -0.1390    0.0410 C   0  0  0  0  0  0  0  0  0  0  0  0
   -2.6730    1.0250    0.3260 C   0  0  0  0  0  0  0  0  0  0  0  0
   -3.8450    0.7750    0.7720 O   0  0  0  0  0  0  0  0  0  0  0  0
   -2.3040    2.3210    0.1550 O   0  0  0  0  0  0  0  0  0  0  0  0
   -0.6230    0.0480   -0.4160 C   0  0  0  0  0  0  0  0  0  0  0  0
   -0.1560    1.4780   -0.7060 C   0  0  0  0  0  0  0  0  0  0  0  0
    2.3360    1.0280    1.3070 C   0  0  0  0  0  0  0  0  0  0  0  0
    3.1680    1.9460    1.4020 O   0  0  0  0  0  0  0  0  0  0  0  0
    1.3750    0.9080    2.2790 O   0  0  0  0  0  0  0  0  0  0  0  0
  1  2  2  0
  2  3  1  0
  2 14  1  0
  4  3  1  1
  4  5  1  0
  4 12  1  0
  5  6  1  0
  6  7  2  0
  7  8  1  0
  8  9  1  0
  8 12  2  0
  9 10  2  0
  9 11  1  0
 12 13  1  0
 14 15  2  0
 14 16  1  0
M  END
>  <MODEL>  (41) 
       3

$$$$
../data/cho_sim50/66679548.pdb
     RDKit          3D

 15 15  0  0  1  0  0  0  0  0999 V2000
    2.4260    0.9680   -1.2170 C   0  0  0  0  0  0  0  0  0  0  0  0
    2.3610    0.1470   -0.2060 C   0  0  0  0  0  0  0  0  0  0  0  0
    1.3520   -0.7750   -0.0200 O   0  0  0  0  0  0  0  0  0  0  0  0
    0.0900   -0.6930   -0.6890 C   0  0  2  0  0  0  0  0  0  0  0  0
   -0.6170    0.5290   -0.3880 C   0  0  0  0  0  0  0  0  0  0  0  0
   -1.8500    0.5680    0.0550 C   0  0  0  0  0  0  0  0  0  0  0  0
   -2.5330    1.8440    0.3480 C   0  0  0  0  0  0  0  0  0  0  0  0
   -1.9590    2.9450    0.1840 O   0  0  0  0  0  0  0  0  0  0  0  0
   -3.8390    1.8700    0.8160 O   0  0  0  0  0  0  0  0  0  0  0  0
   -2.5430   -0.6940    0.2690 C   0  0  0  0  0  0  0  0  0  0  0  0
   -1.9780   -1.8480    0.0370 C   0  0  0  0  0  0  0  0  0  0  0  0
   -0.6140   -1.9550   -0.4500 C   0  0  0  0  0  0  0  0  0  0  0  0
    3.4130    0.1890    0.8040 C   0  0  0  0  0  0  0  0  0  0  0  0
    4.3830    1.0080    0.7140 O   0  0  0  0  0  0  0  0  0  0  0  0
    3.4340   -0.6430    1.9160 O   0  0  0  0  0  0  0  0  0  0  0  0
  1  2  2  0
  2  3  1  0
  2 13  1  0
  4  3  1  1
  4  5  1  0
  4 12  1  0
  5  6  2  0
  6  7  1  0
  6 10  1  0
  7  8  2  0
  7  9  1  0
 10 11  2  0
 11 12  1  0
 13 14  2  0
 13 15  1  0
M  END
>  <MODEL>  (42) 
       1

$$$$
../data/cho_sim50/66679548.pdb
     RDKit          3D

 15 15  0  0  1  0  0  0  0  0999 V2000
    2.8520   -1.3390   -0.1960 C   0  0  0  0  0  0  0  0  0  0  0  0
    2.3710   -0.2880    0.4540 C   0  0  0  0  0  0  0  0  0  0  0  0
    1.1060   -0.2940    0.9830 O   0  0  0  0  0  0  0  0  0  0  0  0
    0.0480   -0.7080    0.0850 C   0  0  1  0  0  0  0  0  0  0  0  0
   -1.2380   -0.6750    0.7490 C   0  0  0  0  0  0  0  0  0  0  0  0
   -2.2940   -0.0630    0.2780 C   0  0  0  0  0  0  0  0  0  0  0  0
   -3.5830   -0.0400    0.9610 C   0  0  0  0  0  0  0  0  0  0  0  0
   -3.6580   -0.6470    2.0580 O   0  0  0  0  0  0  0  0  0  0  0  0
   -4.6850    0.6150    0.4400 O   0  0  0  0  0  0  0  0  0  0  0  0
   -2.1980    0.6450   -1.0060 C   0  0  0  0  0  0  0  0  0  0  0  0
   -1.0700    0.6580   -1.6610 C   0  0  0  0  0  0  0  0  0  0  0  0
    0.1370    0.0040   -1.2020 C   0  0  0  0  0  0  0  0  0  0  0  0
    3.2020    0.8950    0.6110 C   0  0  0  0  0  0  0  0  0  0  0  0
    2.7460    1.8970    1.2290 O   0  0  0  0  0  0  0  0  0  0  0  0
    4.5030    0.9550    0.0890 O   0  0  0  0  0  0  0  0  0  0  0  0
  1  2  2  0
  2  3  1  0
  2 13  1  0
  4  3  1  1
  4  5  1  0
  4 12  1  0
  5  6  2  0
  6  7  1  0
  6 10  1  0
  7  8  2  0
  7  9  1  0
 10 11  2  0
 11 12  1  0
 13 14  2  0
 13 15  1  0
M  END
>  <MODEL>  (43) 
       2

$$$$
../data/cho_sim50/66679548.pdb
     RDKit          3D

 15 15  0  0  1  0  0  0  0  0999 V2000
    2.4530   -1.0030    1.5050 C   0  0  0  0  0  0  0  0  0  0  0  0
    2.1960    0.0530    0.7670 C   0  0  0  0  0  0  0  0  0  0  0  0
    1.5380   -0.0680   -0.4160 O   0  0  0  0  0  0  0  0  0  0  0  0
    0.3760   -0.8630   -0.6210 C   0  0  1  0  0  0  0  0  0  0  0  0
   -0.7370   -0.4520    0.2280 C   0  0  0  0  0  0  0  0  0  0  0  0
   -1.9320   -0.0670   -0.1710 C   0  0  0  0  0  0  0  0  0  0  0  0
   -2.9510    0.3180    0.7980 C   0  0  0  0  0  0  0  0  0  0  0  0
   -4.0920    0.6850    0.4230 O   0  0  0  0  0  0  0  0  0  0  0  0
   -2.7080    0.2950    2.1600 O   0  0  0  0  0  0  0  0  0  0  0  0
   -2.2220   -0.0290   -1.5820 C   0  0  0  0  0  0  0  0  0  0  0  0
   -1.3070   -0.3720   -2.4380 C   0  0  0  0  0  0  0  0  0  0  0  0
    0.0310   -0.8060   -2.0700 C   0  0  0  0  0  0  0  0  0  0  0  0
    2.6250    1.3580    1.2310 C   0  0  0  0  0  0  0  0  0  0  0  0
    3.2390    1.5500    2.3150 O   0  0  0  0  0  0  0  0  0  0  0  0
    2.3600    2.4790    0.4600 O   0  0  0  0  0  0  0  0  0  0  0  0
  1  2  2  0
  2  3  1  0
  2 13  1  0
  4  3  1  6
  4  5  1  0
  4 12  1  0
  5  6  2  0
  6  7  1  0
  6 10  1  0
  7  8  2  0
  7  9  1  0
 10 11  2  0
 11 12  1  0
 13 14  2  0
 13 15  1  0
M  END
>  <MODEL>  (44) 
       3

$$$$
../data/cho_sim50/67149829.pdb
     RDKit          3D

 17 17  0  0  1  0  0  0  0  0999 V2000
    4.2750    0.6280   -0.5800 O   0  0  0  0  0  0  0  0  0  0  0  0
    4.6620   -0.5530   -0.8790 C   0  0  0  0  0  0  0  0  0  0  0  0
    5.9880   -0.7250   -1.1850 O   0  0  0  0  0  0  0  0  0  0  0  0
    3.7330   -1.7080   -0.9060 C   0  0  0  0  0  0  0  0  0  0  0  0
    2.4580   -1.1850   -0.5300 O   0  0  0  0  0  0  0  0  0  0  0  0
    2.3200   -0.6810    0.7510 C   0  0  0  0  0  0  0  0  0  0  0  0
    3.3290   -0.7400    1.5230 O   0  0  0  0  0  0  0  0  0  0  0  0
    1.0880   -0.0970    1.2140 C   0  0  0  0  0  0  0  0  0  0  0  0
   -0.0180    0.0170    0.4160 C   0  0  0  0  0  0  0  0  0  0  0  0
   -1.1560    0.5510    0.8840 C   0  0  0  0  0  0  0  0  0  0  0  0
   -2.2390    1.0590    1.3290 C   0  0  0  0  0  0  0  0  0  0  0  0
   -3.5730    1.4510    0.9190 C   0  0  0  0  0  0  0  0  0  0  0  0
   -4.0300    0.5670   -0.2250 C   0  0  0  0  0  0  0  0  0  0  0  0
   -5.1010    0.4590   -0.6060 O   0  0  0  0  0  0  0  0  0  0  0  0
   -2.8370   -0.1660   -0.8030 C   0  0  1  0  0  0  0  0  0  0  0  0
   -3.1280   -0.5980   -2.0970 O   0  0  0  0  0  0  0  0  0  0  0  0
   -1.7710    0.8530   -0.8330 C   0  0  0  0  0  0  0  0  0  0  0  0
  1  2  2  0
  2  3  1  0
  2  4  1  0
  4  5  1  0
  5  6  1  0
  6  7  2  0
  6  8  1  0
  8  9  2  0
  9 10  1  0
 10 11  2  0
 10 17  1  0
 11 12  1  0
 12 13  1  0
 13 14  2  0
 13 15  1  0
 15 16  1  6
 15 17  1  0
M  END
>  <MODEL>  (45) 
       1

$$$$
../data/cho_sim50/67149829.pdb
     RDKit          3D

 17 17  0  0  1  0  0  0  0  0999 V2000
   -6.3100    0.1170    0.7910 O   0  0  0  0  0  0  0  0  0  0  0  0
   -5.0530    0.1970    0.7270 C   0  0  0  0  0  0  0  0  0  0  0  0
   -4.3580    1.1990    1.3450 O   0  0  0  0  0  0  0  0  0  0  0  0
   -4.3510   -0.8490   -0.0540 C   0  0  0  0  0  0  0  0  0  0  0  0
   -2.9670   -0.5820   -0.0020 O   0  0  0  0  0  0  0  0  0  0  0  0
   -2.0560   -1.4020   -0.6490 C   0  0  0  0  0  0  0  0  0  0  0  0
   -2.4920   -2.3910   -1.2830 O   0  0  0  0  0  0  0  0  0  0  0  0
   -0.6520   -1.0890   -0.5670 C   0  0  0  0  0  0  0  0  0  0  0  0
   -0.2210   -0.0470    0.1030 C   0  0  0  0  0  0  0  0  0  0  0  0
    1.1980    0.3150    0.2170 C   0  0  0  0  0  0  0  0  0  0  0  0
    1.5270    1.3900    0.9190 C   0  0  0  0  0  0  0  0  0  0  0  0
    2.9250    1.8600    1.1070 C   0  0  0  0  0  0  0  0  0  0  0  0
    3.7340    1.1700    0.0910 C   0  0  0  0  0  0  0  0  0  0  0  0
    4.5030    1.7880   -0.5870 O   0  0  0  0  0  0  0  0  0  0  0  0
    3.5800   -0.2830   -0.0720 C   0  0  2  0  0  0  0  0  0  0  0  0
    4.4970   -0.8140   -0.9740 O   0  0  0  0  0  0  0  0  0  0  0  0
    2.1590   -0.5620   -0.4700 C   0  0  0  0  0  0  0  0  0  0  0  0
  1  2  2  0
  2  3  1  0
  2  4  1  0
  4  5  1  0
  5  6  1  0
  6  7  2  0
  6  8  1  0
  8  9  2  0
  9 10  1  0
 10 11  2  0
 10 17  1  0
 11 12  1  0
 12 13  1  0
 13 14  2  0
 13 15  1  0
 15 16  1  6
 15 17  1  0
M  END
>  <MODEL>  (46) 
       2

$$$$
../data/cho_sim50/70627842.pdb
     RDKit          3D

 13 13  0  0  1  0  0  0  0  0999 V2000
    0.2190   -2.7370   -0.2990 C   0  0  0  0  0  0  0  0  0  0  0  0
    0.1880   -1.4420    0.5180 C   0  0  2  0  0  0  0  0  0  0  0  0
   -1.0940   -0.7510    0.3460 C   0  0  0  0  0  0  0  0  0  0  0  0
   -1.1650    0.5030   -0.0140 C   0  0  0  0  0  0  0  0  0  0  0  0
   -2.5070    1.1160   -0.1620 C   0  0  0  0  0  0  0  0  0  0  0  0
   -3.5160    0.4090    0.0610 O   0  0  0  0  0  0  0  0  0  0  0  0
   -2.6570    2.4440   -0.5410 O   0  0  0  0  0  0  0  0  0  0  0  0
    0.0210    1.3080   -0.2690 C   0  0  0  0  0  0  0  0  0  0  0  0
    1.1890    0.6810   -0.1130 C   0  0  0  0  0  0  0  0  0  0  0  0
    2.4030    1.4680   -0.3640 C   0  0  0  0  0  0  0  0  0  0  0  0
    2.3140    2.6540   -0.7030 O   0  0  0  0  0  0  0  0  0  0  0  0
    3.6440    0.8540   -0.2130 O   0  0  0  0  0  0  0  0  0  0  0  0
    1.2690   -0.6310    0.2630 O   0  0  0  0  0  0  0  0  0  0  0  0
  2  1  1  6
  2  3  1  0
  2 13  1  0
  3  4  2  0
  4  5  1  0
  4  8  1  0
  5  6  2  0
  5  7  1  0
  8  9  2  0
  9 10  1  0
  9 13  1  0
 10 11  2  0
 10 12  1  0
M  END
$$$$
../data/cho_sim50/70657798.pdb
     RDKit          3D

 16 16  0  0  1  0  0  0  0  0999 V2000
   -2.2970    1.0930    1.0380 C   0  0  0  0  0  0  0  0  0  0  0  0
   -2.2000    0.5210   -0.1360 C   0  0  0  0  0  0  0  0  0  0  0  0
   -1.3370   -0.5340   -0.3170 O   0  0  0  0  0  0  0  0  0  0  0  0
   -0.2000   -0.7820    0.4970 C   0  0  2  0  0  0  0  0  0  0  0  0
    0.6670    0.4020    0.3810 C   0  0  0  0  0  0  0  0  0  0  0  0
    1.9220    0.3710    0.0120 C   0  0  0  0  0  0  0  0  0  0  0  0
    2.6980    1.6280   -0.0690 C   0  0  0  0  0  0  0  0  0  0  0  0
    3.9100    1.5850   -0.4270 O   0  0  0  0  0  0  0  0  0  0  0  0
    2.0560    2.7980    0.2530 O   0  0  0  0  0  0  0  0  0  0  0  0
    2.5350   -0.9020   -0.3140 C   0  0  0  0  0  0  0  0  0  0  0  0
    1.8540   -2.0130   -0.2440 C   0  0  0  0  0  0  0  0  0  0  0  0
    0.4450   -2.0740    0.1590 C   0  0  1  0  0  0  0  0  0  0  0  0
    0.3500   -3.0140    1.1910 O   0  0  0  0  0  0  0  0  0  0  0  0
   -2.9960    0.9950   -1.2380 C   0  0  0  0  0  0  0  0  0  0  0  0
   -3.7950    1.9530   -1.1150 O   0  0  0  0  0  0  0  0  0  0  0  0
   -2.8780    0.3760   -2.4700 O   0  0  0  0  0  0  0  0  0  0  0  0
  1  2  2  0
  2  3  1  0
  2 14  1  0
  4  3  1  6
  4  5  1  0
  4 12  1  0
  5  6  2  0
  6  7  1  0
  6 10  1  0
  7  8  2  0
  7  9  1  0
 10 11  2  0
 11 12  1  0
 12 13  1  1
 14 15  2  0
 14 16  1  0
M  END
>  <MODEL>  (48) 
       1

$$$$
../data/cho_sim50/70657798.pdb
     RDKit          3D

 16 16  0  0  1  0  0  0  0  0999 V2000
   -2.7960   -0.9840   -1.8230 C   0  0  0  0  0  0  0  0  0  0  0  0
   -2.4140   -0.0640   -0.9400 C   0  0  0  0  0  0  0  0  0  0  0  0
   -1.1380    0.4770   -0.9500 O   0  0  0  0  0  0  0  0  0  0  0  0
   -0.2500    0.4710    0.1470 C   0  0  2  0  0  0  0  0  0  0  0  0
    1.0120    1.1370   -0.2430 C   0  0  0  0  0  0  0  0  0  0  0  0
    2.2080    0.6240   -0.1910 C   0  0  0  0  0  0  0  0  0  0  0  0
    3.3990    1.3820   -0.6060 C   0  0  0  0  0  0  0  0  0  0  0  0
    3.2990    2.5560   -1.0260 O   0  0  0  0  0  0  0  0  0  0  0  0
    4.6480    0.8180   -0.5420 O   0  0  0  0  0  0  0  0  0  0  0  0
    2.3710   -0.7390    0.2900 C   0  0  0  0  0  0  0  0  0  0  0  0
    1.3040   -1.4010    0.6550 C   0  0  0  0  0  0  0  0  0  0  0  0
   -0.0750   -0.9150    0.6340 C   0  0  2  0  0  0  0  0  0  0  0  0
   -0.8240   -1.8600   -0.1060 O   0  0  0  0  0  0  0  0  0  0  0  0
   -3.3760    0.3690    0.0490 C   0  0  0  0  0  0  0  0  0  0  0  0
   -4.5470   -0.1250    0.0610 O   0  0  0  0  0  0  0  0  0  0  0  0
   -2.9940    1.3270    0.9750 O   0  0  0  0  0  0  0  0  0  0  0  0
  1  2  2  0
  2  3  1  0
  2 14  1  0
  4  3  1  6
  4  5  1  0
  4 12  1  0
  5  6  2  0
  6  7  1  0
  6 10  1  0
  7  8  2  0
  7  9  1  0
 10 11  2  0
 11 12  1  0
 12 13  1  6
 14 15  2  0
 14 16  1  0
M  END
>  <MODEL>  (49) 
       2

$$$$
../data/cho_sim50/70657798.pdb
     RDKit          3D

 16 16  0  0  1  0  0  0  0  0999 V2000
   -2.7820   -1.2150   -0.9240 C   0  0  0  0  0  0  0  0  0  0  0  0
   -2.3950   -0.6610    0.2040 C   0  0  0  0  0  0  0  0  0  0  0  0
   -1.0960   -0.8390    0.6320 O   0  0  0  0  0  0  0  0  0  0  0  0
    0.0190   -0.6310   -0.2660 C   0  0  2  0  0  0  0  0  0  0  0  0
    1.2700   -0.8920    0.4600 C   0  0  0  0  0  0  0  0  0  0  0  0
    2.2950   -0.0940    0.5600 C   0  0  0  0  0  0  0  0  0  0  0  0
    3.5130   -0.4410    1.3120 C   0  0  0  0  0  0  0  0  0  0  0  0
    3.5500   -1.5580    1.8760 O   0  0  0  0  0  0  0  0  0  0  0  0
    4.5630    0.4360    1.3840 O   0  0  0  0  0  0  0  0  0  0  0  0
    2.2090    1.1840   -0.1070 C   0  0  0  0  0  0  0  0  0  0  0  0
    1.1370    1.5160   -0.7830 C   0  0  0  0  0  0  0  0  0  0  0  0
   -0.0310    0.6670   -0.9260 C   0  0  1  0  0  0  0  0  0  0  0  0
   -0.2030    0.4220   -2.3200 O   0  0  0  0  0  0  0  0  0  0  0  0
   -3.3730    0.1220    0.9500 C   0  0  0  0  0  0  0  0  0  0  0  0
   -3.0450    0.6770    2.0470 O   0  0  0  0  0  0  0  0  0  0  0  0
   -4.6690    0.3040    0.5310 O   0  0  0  0  0  0  0  0  0  0  0  0
  1  2  2  0
  2  3  1  0
  2 14  1  0
  4  3  1  1
  4  5  1  0
  4 12  1  0
  5  6  2  0
  6  7  1  0
  6 10  1  0
  7  8  2  0
  7  9  1  0
 10 11  2  0
 11 12  1  0
 12 13  1  6
 14 15  2  0
 14 16  1  0
M  END
>  <MODEL>  (50) 
       3

$$$$
../data/cho_sim50/74374535.pdb
     RDKit          3D

 18 18  0  0  0  0  0  0  0  0999 V2000
   -4.6070   -0.0800   -0.9030 C   0  0  0  0  0  0  0  0  0  0  0  0
   -3.9690   -0.1060    0.4590 C   0  0  0  0  0  0  0  0  0  0  0  0
   -4.2730   -1.4840    1.0600 C   0  0  0  0  0  0  0  0  0  0  0  0
   -2.5730    0.0110    0.4150 O   0  0  0  0  0  0  0  0  0  0  0  0
   -1.9000    1.0190    1.1170 C   0  0  0  0  0  0  0  0  0  0  0  0
   -2.6140    1.8050    1.7830 O   0  0  0  0  0  0  0  0  0  0  0  0
   -0.4240    1.1210    1.0550 C   0  0  0  0  0  0  0  0  0  0  0  0
    0.2290    0.2610    0.3390 C   0  0  0  0  0  0  0  0  0  0  0  0
    1.6630    0.2010    0.1570 C   0  0  0  0  0  0  0  0  0  0  0  0
    2.2370   -0.7860   -0.6480 C   0  0  0  0  0  0  0  0  0  0  0  0
    3.5170   -0.8750   -0.8370 O   0  0  0  0  0  0  0  0  0  0  0  0
    4.3500   -0.0320   -0.2760 C   0  0  0  0  0  0  0  0  0  0  0  0
    5.7800   -0.1520   -0.5030 C   0  0  0  0  0  0  0  0  0  0  0  0
    6.5530    0.6660    0.0450 O   0  0  0  0  0  0  0  0  0  0  0  0
    6.2760   -1.1780   -1.3310 O   0  0  0  0  0  0  0  0  0  0  0  0
    3.8830    0.9760    0.5340 C   0  0  0  0  0  0  0  0  0  0  0  0
    2.5010    1.0860    0.7490 C   0  0  0  0  0  0  0  0  0  0  0  0
    2.1150    2.0130    1.4910 O   0  0  0  0  0  0  0  0  0  0  0  0
  1  2  1  0
  2  3  1  0
  2  4  1  0
  4  5  1  0
  5  6  2  0
  5  7  1  0
  7  8  2  0
  8  9  1  0
  9 10  2  0
  9 17  1  0
 10 11  1  0
 11 12  1  0
 12 13  1  0
 12 16  2  0
 13 14  2  0
 13 15  1  0
 16 17  1  0
 17 18  2  0
M  END
>  <MODEL>  (51) 
       1

$$$$
../data/cho_sim50/74374535.pdb
     RDKit          3D

 18 18  0  0  0  0  0  0  0  0999 V2000
   -4.9500   -0.8670    0.4640 C   0  0  0  0  0  0  0  0  0  0  0  0
   -4.2330    0.2220   -0.3460 C   0  0  0  0  0  0  0  0  0  0  0  0
   -4.8160    1.5870   -0.0250 C   0  0  0  0  0  0  0  0  0  0  0  0
   -2.8910    0.2270    0.1460 O   0  0  0  0  0  0  0  0  0  0  0  0
   -1.8110   -0.0280   -0.6420 C   0  0  0  0  0  0  0  0  0  0  0  0
   -1.9870   -0.2810   -1.8590 O   0  0  0  0  0  0  0  0  0  0  0  0
   -0.4560   -0.0010   -0.0460 C   0  0  0  0  0  0  0  0  0  0  0  0
    0.6000   -0.2380   -0.7620 C   0  0  0  0  0  0  0  0  0  0  0  0
    1.9720   -0.2420   -0.3010 C   0  0  0  0  0  0  0  0  0  0  0  0
    2.9910   -0.5220   -1.2230 C   0  0  0  0  0  0  0  0  0  0  0  0
    4.2220   -0.5350   -0.8530 O   0  0  0  0  0  0  0  0  0  0  0  0
    4.6470   -0.3020    0.3560 C   0  0  0  0  0  0  0  0  0  0  0  0
    6.0480   -0.3270    0.7320 C   0  0  0  0  0  0  0  0  0  0  0  0
    6.8960   -0.5860   -0.1530 O   0  0  0  0  0  0  0  0  0  0  0  0
    6.4910   -0.0790    2.0180 O   0  0  0  0  0  0  0  0  0  0  0  0
    3.7060   -0.0200    1.3180 C   0  0  0  0  0  0  0  0  0  0  0  0
    2.3480    0.0110    0.9840 C   0  0  0  0  0  0  0  0  0  0  0  0
    1.4990    0.2700    1.8690 O   0  0  0  0  0  0  0  0  0  0  0  0
  1  2  1  0
  2  3  1  0
  2  4  1  0
  4  5  1  0
  5  6  2  0
  5  7  1  0
  7  8  2  0
  8  9  1  0
  9 10  2  0
  9 17  1  0
 10 11  1  0
 11 12  1  0
 12 13  1  0
 12 16  2  0
 13 14  2  0
 13 15  1  0
 16 17  1  0
 17 18  2  0
M  END
>  <MODEL>  (52) 
       2

$$$$
../data/cho_sim50/88700420.pdb
     RDKit          3D

 20 22  0  0  1  0  0  0  0  0999 V2000
    6.0630    0.4050   -0.5550 O   0  0  0  0  0  0  0  0  0  0  0  0
    5.0510    0.6350    0.1450 C   0  0  0  0  0  0  0  0  0  0  0  0
    5.2210    1.2810    1.3540 O   0  0  0  0  0  0  0  0  0  0  0  0
    3.7170    0.2220   -0.3160 C   0  0  0  0  0  0  0  0  0  0  0  0
    3.5330   -0.3960   -1.4650 C   0  0  0  0  0  0  0  0  0  0  0  0
    2.2310   -0.8320   -1.9470 C   0  0  0  0  0  0  0  0  0  0  0  0
    1.1810   -0.6050   -1.1550 C   0  0  0  0  0  0  0  0  0  0  0  0
   -0.1490   -0.9890   -1.5910 C   0  0  0  0  0  0  0  0  0  0  0  0
   -1.1780   -0.5030   -0.9210 C   0  0  0  0  0  0  0  0  0  0  0  0
   -2.4550   -0.8500   -1.3660 C   0  0  0  0  0  0  0  0  0  0  0  0
   -3.5450   -0.4610   -0.6270 C   0  0  0  0  0  0  0  0  0  0  0  0
   -3.4550    0.2600    0.5430 C   0  0  0  0  0  0  0  0  0  0  0  0
   -4.6500    0.6600    1.2980 C   0  0  0  0  0  0  0  0  0  0  0  0
   -4.5100    1.3080    2.3450 O   0  0  0  0  0  0  0  0  0  0  0  0
   -5.9260    0.3370    0.8810 O   0  0  0  0  0  0  0  0  0  0  0  0
   -2.1890    0.5870    0.9680 C   0  0  0  0  0  0  0  0  0  0  0  0
   -1.0440    0.2070    0.2480 C   0  0  0  0  0  0  0  0  0  0  0  0
    0.1580    0.4280    0.7960 C   0  0  0  0  0  0  0  0  0  0  0  0
    1.3580   -0.0870    0.2100 C   0  0  2  0  0  0  0  0  0  0  0  0
    2.5810    0.4910    0.4570 O   0  0  0  0  0  0  0  0  0  0  0  0
  1  2  2  0
  2  3  1  0
  2  4  1  0
  4  5  2  0
  4 20  1  0
  5  6  1  0
  6  7  2  0
  7  8  1  0
  7 19  1  0
  8  9  2  0
  9 10  1  0
  9 17  1  0
 10 11  2  0
 11 12  1  0
 12 13  1  0
 12 16  2  0
 13 14  2  0
 13 15  1  0
 16 17  1  0
 17 18  2  0
 18 19  1  0
 19 20  1  6
M  END
$$$$
../data/cho_sim50/88700862.pdb
     RDKit          3D

 20 22  0  0  1  0  0  0  0  0999 V2000
   -5.4970    0.8220   -0.7400 O   0  0  0  0  0  0  0  0  0  0  0  0
   -5.0710   -0.1360   -0.0710 C   0  0  0  0  0  0  0  0  0  0  0  0
   -6.0100   -0.9720    0.5210 O   0  0  0  0  0  0  0  0  0  0  0  0
   -3.6530   -0.3930    0.0990 C   0  0  0  0  0  0  0  0  0  0  0  0
   -3.2410   -1.4110    0.8090 C   0  0  0  0  0  0  0  0  0  0  0  0
   -1.8180   -1.6620    0.9570 C   0  0  0  0  0  0  0  0  0  0  0  0
   -0.9110   -0.8640    0.3410 C   0  0  0  0  0  0  0  0  0  0  0  0
    0.5170   -1.0690    0.4920 C   0  0  0  0  0  0  0  0  0  0  0  0
    1.3200   -0.0890    0.1120 C   0  0  0  0  0  0  0  0  0  0  0  0
    2.6670   -0.2490    0.2760 C   0  0  0  0  0  0  0  0  0  0  0  0
    3.5570    0.6760   -0.2120 C   0  0  0  0  0  0  0  0  0  0  0  0
    4.9740    0.4660   -0.0160 C   0  0  0  0  0  0  0  0  0  0  0  0
    5.8080    1.2890   -0.4470 O   0  0  0  0  0  0  0  0  0  0  0  0
    5.4110   -0.6530    0.6530 O   0  0  0  0  0  0  0  0  0  0  0  0
    3.0550    1.7760   -0.8740 C   0  0  0  0  0  0  0  0  0  0  0  0
    1.7070    1.9800   -1.0690 C   0  0  0  0  0  0  0  0  0  0  0  0
    0.8330    1.0150   -0.5640 C   0  0  0  0  0  0  0  0  0  0  0  0
   -0.4410    1.1720   -0.9050 C   0  0  0  0  0  0  0  0  0  0  0  0
   -1.4150    0.1350   -0.5970 C   0  0  2  0  0  0  0  0  0  0  0  0
   -2.7460    0.4850   -0.5050 O   0  0  0  0  0  0  0  0  0  0  0  0
  1  2  2  0
  2  3  1  0
  2  4  1  0
  4  5  2  0
  4 20  1  0
  5  6  1  0
  6  7  2  0
  7  8  1  0
  7 19  1  0
  8  9  2  0
  9 10  1  0
  9 17  1  0
 10 11  2  0
 11 12  1  0
 11 15  1  0
 12 13  2  0
 12 14  1  0
 15 16  2  0
 16 17  1  0
 17 18  2  0
 18 19  1  0
 19 20  1  1
M  END
$$$$
../data/cho_sim50/89165212.pdb
     RDKit          3D

 14 14  0  0  1  0  0  0  0  0999 V2000
   -1.0090    1.8820    2.2070 C   0  0  0  0  0  0  0  0  0  0  0  0
   -1.3580    1.5800    0.9770 C   0  0  0  0  0  0  0  0  0  0  0  0
   -2.7510    1.4050    0.5970 C   0  0  0  0  0  0  0  0  0  0  0  0
   -3.6620    1.5470    1.4700 O   0  0  0  0  0  0  0  0  0  0  0  0
   -0.3740    1.4230    0.0180 O   0  0  0  0  0  0  0  0  0  0  0  0
   -0.2530    0.2050   -0.7310 C   0  0  2  0  0  0  0  0  0  0  0  0
   -0.0130   -0.8520    0.2550 C   0  0  0  0  0  0  0  0  0  0  0  0
    1.0550   -1.6080    0.2580 C   0  0  0  0  0  0  0  0  0  0  0  0
    1.2410   -2.6360    1.2550 C   0  0  0  0  0  0  0  0  0  0  0  0
    2.2560   -3.3810    1.2870 O   0  0  0  0  0  0  0  0  0  0  0  0
    2.0470   -1.3770   -0.7780 C   0  0  0  0  0  0  0  0  0  0  0  0
    1.9290   -0.4600   -1.7050 C   0  0  0  0  0  0  0  0  0  0  0  0
    0.7610    0.4240   -1.7730 C   0  0  1  0  0  0  0  0  0  0  0  0
    0.1310    0.3020   -3.0410 O   0  0  0  0  0  0  0  0  0  0  0  0
  1  2  2  0
  2  3  1  0
  2  5  1  0
  3  4  2  0
  6  5  1  1
  6  7  1  0
  6 13  1  0
  7  8  2  0
  8  9  1  0
  8 11  1  0
  9 10  2  0
 11 12  2  0
 12 13  1  0
 13 14  1  6
M  END
$$$$
../data/cho_sim50/89197328.pdb
     RDKit          3D

 18 18  0  0  1  0  0  0  0  0999 V2000
    0.6760   -1.5400    1.5250 C   0  0  0  0  0  0  0  0  0  0  0  0
    1.0540   -0.8170    0.5080 C   0  0  0  0  0  0  0  0  0  0  0  0
    0.2420   -0.7080   -0.6020 O   0  0  0  0  0  0  0  0  0  0  0  0
   -0.8000    0.2860   -0.6800 C   0  0  2  0  0  0  0  0  0  0  0  0
   -1.7140    0.0260    0.4300 C   0  0  0  0  0  0  0  0  0  0  0  0
   -2.9790   -0.2750    0.3240 C   0  0  0  0  0  0  0  0  0  0  0  0
   -3.7970   -0.5140    1.5040 C   0  0  0  0  0  0  0  0  0  0  0  0
   -3.2640   -0.4250    2.6300 O   0  0  0  0  0  0  0  0  0  0  0  0
   -5.1440   -0.8370    1.4480 O   0  0  0  0  0  0  0  0  0  0  0  0
   -3.5170   -0.3520   -1.0240 C   0  0  0  0  0  0  0  0  0  0  0  0
   -2.7910   -0.1340   -2.0890 C   0  0  0  0  0  0  0  0  0  0  0  0
   -1.3730    0.2080   -2.0290 C   0  0  1  0  0  0  0  0  0  0  0  0
   -1.2780    1.4620   -2.7080 O   0  0  0  0  0  0  0  0  0  0  0  0
    2.3220   -0.1130    0.5100 C   0  0  0  0  0  0  0  0  0  0  0  0
    3.0850   -0.2040    1.5310 O   0  0  0  0  0  0  0  0  0  0  0  0
    2.7740    0.6610   -0.5260 O   0  0  0  0  0  0  0  0  0  0  0  0
    4.0000    1.3470   -0.5350 C   0  0  0  0  0  0  0  0  0  0  0  0
    5.1210    0.3350   -0.3820 C   0  0  0  0  0  0  0  0  0  0  0  0
  1  2  2  0
  2  3  1  0
  2 14  1  0
  4  3  1  6
  4  5  1  0
  4 12  1  0
  5  6  2  0
  6  7  1  0
  6 10  1  0
  7  8  2  0
  7  9  1  0
 10 11  2  0
 11 12  1  0
 12 13  1  1
 14 15  2  0
 14 16  1  0
 16 17  1  0
 17 18  1  0
M  END
>  <MODEL>  (56) 
       1

$$$$
../data/cho_sim50/89197328.pdb
     RDKit          3D

 18 18  0  0  1  0  0  0  0  0999 V2000
    0.2410    0.9350   -1.1380 C   0  0  0  0  0  0  0  0  0  0  0  0
    0.7890    0.5790   -0.0080 C   0  0  0  0  0  0  0  0  0  0  0  0
    0.1090    0.0930    1.0390 O   0  0  0  0  0  0  0  0  0  0  0  0
   -1.1600   -0.5120    1.1320 C   0  0  1  0  0  0  0  0  0  0  0  0
   -2.2280    0.3740    0.6910 C   0  0  0  0  0  0  0  0  0  0  0  0
   -3.2480    0.0660   -0.0710 C   0  0  0  0  0  0  0  0  0  0  0  0
   -4.2580    1.0460   -0.4420 C   0  0  0  0  0  0  0  0  0  0  0  0
   -5.2090    0.7100   -1.1660 O   0  0  0  0  0  0  0  0  0  0  0  0
   -4.1390    2.3320    0.0210 O   0  0  0  0  0  0  0  0  0  0  0  0
   -3.3530   -1.2830   -0.5990 C   0  0  0  0  0  0  0  0  0  0  0  0
   -2.3920   -2.1190   -0.2730 C   0  0  0  0  0  0  0  0  0  0  0  0
   -1.2260   -1.8610    0.5550 C   0  0  2  0  0  0  0  0  0  0  0  0
   -1.2570   -2.8240    1.5940 O   0  0  0  0  0  0  0  0  0  0  0  0
    2.2470    0.7220    0.1240 C   0  0  0  0  0  0  0  0  0  0  0  0
    2.8340    0.3990    1.1820 O   0  0  0  0  0  0  0  0  0  0  0  0
    3.0240    1.2160   -0.9100 O   0  0  0  0  0  0  0  0  0  0  0  0
    4.4180    1.3420   -0.7550 C   0  0  0  0  0  0  0  0  0  0  0  0
    5.0990    0.0300   -0.4680 C   0  0  0  0  0  0  0  0  0  0  0  0
  1  2  2  0
  2  3  1  0
  2 14  1  0
  4  3  1  6
  4  5  1  0
  4 12  1  0
  5  6  2  0
  6  7  1  0
  6 10  1  0
  7  8  2  0
  7  9  1  0
 10 11  2  0
 11 12  1  0
 12 13  1  1
 14 15  2  0
 14 16  1  0
 16 17  1  0
 17 18  1  0
M  END
>  <MODEL>  (57) 
       2

$$$$
../data/cho_sim50/89197328.pdb
     RDKit          3D

 18 18  0  0  1  0  0  0  0  0999 V2000
    1.2850   -2.5210    0.4230 C   0  0  0  0  0  0  0  0  0  0  0  0
    1.2160   -1.2580    0.0640 C   0  0  0  0  0  0  0  0  0  0  0  0
    0.1350   -0.7540   -0.6010 O   0  0  0  0  0  0  0  0  0  0  0  0
   -1.2210   -1.1410   -0.2940 C   0  0  2  0  0  0  0  0  0  0  0  0
   -2.0860   -0.4080   -1.1940 C   0  0  0  0  0  0  0  0  0  0  0  0
   -3.0940    0.3230   -0.7960 C   0  0  0  0  0  0  0  0  0  0  0  0
   -3.9250    1.0340   -1.7580 C   0  0  0  0  0  0  0  0  0  0  0  0
   -4.8850    1.7310   -1.3880 O   0  0  0  0  0  0  0  0  0  0  0  0
   -3.6470    0.9360   -3.1090 O   0  0  0  0  0  0  0  0  0  0  0  0
   -3.3950    0.4330    0.6370 C   0  0  0  0  0  0  0  0  0  0  0  0
   -2.6500   -0.2040    1.5040 C   0  0  0  0  0  0  0  0  0  0  0  0
   -1.5150   -1.0340    1.1370 C   0  0  2  0  0  0  0  0  0  0  0  0
   -0.4040   -0.4280    1.8350 O   0  0  0  0  0  0  0  0  0  0  0  0
    2.3280   -0.3860    0.3900 C   0  0  0  0  0  0  0  0  0  0  0  0
    3.3410   -0.8190    1.0030 O   0  0  0  0  0  0  0  0  0  0  0  0
    2.2980    0.9620    0.0280 O   0  0  0  0  0  0  0  0  0  0  0  0
    3.4300    1.7720    0.3800 C   0  0  0  0  0  0  0  0  0  0  0  0
    4.6970    1.2750   -0.2350 C   0  0  0  0  0  0  0  0  0  0  0  0
  1  2  2  0
  2  3  1  0
  2 14  1  0
  4  3  1  1
  4  5  1  0
  4 12  1  0
  5  6  2  0
  6  7  1  0
  6 10  1  0
  7  8  2  0
  7  9  1  0
 10 11  2  0
 11 12  1  0
 12 13  1  1
 14 15  2  0
 14 16  1  0
 16 17  1  0
 17 18  1  0
M  END
>  <MODEL>  (58) 
       3

$$$$
../data/cho_sim50/89936619.pdb
     RDKit          3D

 16 16  0  0  1  0  0  0  0  0999 V2000
    3.3910    2.4800    0.5570 O   0  0  0  0  0  0  0  0  0  0  0  0
    3.6890    1.2690    0.7230 C   0  0  0  0  0  0  0  0  0  0  0  0
    5.0160    0.9700    0.9640 O   0  0  0  0  0  0  0  0  0  0  0  0
    2.6460    0.2530    0.6580 C   0  0  0  0  0  0  0  0  0  0  0  0
    2.9020   -0.9720    0.8190 O   0  0  0  0  0  0  0  0  0  0  0  0
    1.3530    0.6070    0.4170 O   0  0  0  0  0  0  0  0  0  0  0  0
    0.2480   -0.3060    0.3320 C   0  0  2  0  0  0  0  0  0  0  0  0
   -0.2990   -0.3900   -0.9900 C   0  0  0  0  0  0  0  0  0  0  0  0
   -1.5710   -0.3440   -1.2800 C   0  0  0  0  0  0  0  0  0  0  0  0
   -2.0770   -0.4350   -2.6420 C   0  0  0  0  0  0  0  0  0  0  0  0
   -1.3030   -0.5650   -3.6280 O   0  0  0  0  0  0  0  0  0  0  0  0
   -3.4420   -0.3790   -2.8670 O   0  0  0  0  0  0  0  0  0  0  0  0
   -2.5180   -0.1880   -0.1810 C   0  0  0  0  0  0  0  0  0  0  0  0
   -2.1010   -0.0960    1.0650 C   0  0  0  0  0  0  0  0  0  0  0  0
   -0.6930   -0.1390    1.4440 C   0  0  1  0  0  0  0  0  0  0  0  0
   -0.4850   -1.1420    2.4270 O   0  0  0  0  0  0  0  0  0  0  0  0
  1  2  2  0
  2  3  1  0
  2  4  1  0
  4  5  2  0
  4  6  1  0
  7  6  1  6
  7  8  1  0
  7 15  1  0
  8  9  2  0
  9 10  1  0
  9 13  1  0
 10 11  2  0
 10 12  1  0
 13 14  2  0
 14 15  1  0
 15 16  1  1
M  END
$$$$
../data/cho_sim50/90145918.pdb
     RDKit          3D

 18 18  0  0  1  0  0  0  0  0999 V2000
   -3.9400    0.9510   -0.3600 C   0  0  0  0  0  0  0  0  0  0  0  0
   -2.8030    0.8770    0.2900 C   0  0  0  0  0  0  0  0  0  0  0  0
   -2.3820   -0.3170    0.7930 O   0  0  0  0  0  0  0  0  0  0  0  0
   -1.6210   -1.2780    0.0650 C   0  0  1  0  0  0  0  0  0  0  0  0
   -0.3660   -0.6140   -0.3290 C   0  0  0  0  0  0  0  0  0  0  0  0
    0.8200   -1.0160    0.0200 C   0  0  0  0  0  0  0  0  0  0  0  0
    2.0240   -0.3010   -0.4130 C   0  0  0  0  0  0  0  0  0  0  0  0
    3.1650   -0.6980   -0.0690 O   0  0  0  0  0  0  0  0  0  0  0  0
    1.9590    0.8280   -1.2090 O   0  0  0  0  0  0  0  0  0  0  0  0
    3.1650    1.4610   -1.5840 C   0  0  0  0  0  0  0  0  0  0  0  0
    3.9660    1.9370   -0.3960 C   0  0  0  0  0  0  0  0  0  0  0  0
    0.9600   -2.1930    0.8550 C   0  0  0  0  0  0  0  0  0  0  0  0
   -0.0900   -2.8650    1.2660 C   0  0  0  0  0  0  0  0  0  0  0  0
   -1.4590   -2.4760    0.9150 C   0  0  2  0  0  0  0  0  0  0  0  0
   -2.0400   -3.6060    0.3040 O   0  0  0  0  0  0  0  0  0  0  0  0
   -1.9970    2.0670    0.4730 C   0  0  0  0  0  0  0  0  0  0  0  0
   -0.8980    2.0660    1.0860 O   0  0  0  0  0  0  0  0  0  0  0  0
   -2.4000    3.3160   -0.0320 O   0  0  0  0  0  0  0  0  0  0  0  0
  1  2  2  0
  2  3  1  0
  2 16  1  0
  4  3  1  1
  4  5  1  0
  4 14  1  0
  5  6  2  0
  6  7  1  0
  6 12  1  0
  7  8  2  0
  7  9  1  0
  9 10  1  0
 10 11  1  0
 12 13  2  0
 13 14  1  0
 14 15  1  6
 16 17  2  0
 16 18  1  0
M  END
>  <MODEL>  (60) 
       1

$$$$
../data/cho_sim50/90145918.pdb
     RDKit          3D

 18 18  0  0  1  0  0  0  0  0999 V2000
    3.1890   -1.0970    2.6000 C   0  0  0  0  0  0  0  0  0  0  0  0
    3.1480   -0.1740    1.6710 C   0  0  0  0  0  0  0  0  0  0  0  0
    1.9230    0.3780    1.3240 O   0  0  0  0  0  0  0  0  0  0  0  0
    1.3880    0.1450    0.0030 C   0  0  2  0  0  0  0  0  0  0  0  0
    0.1080    0.8230   -0.1110 C   0  0  0  0  0  0  0  0  0  0  0  0
   -0.9930    0.2480   -0.5130 C   0  0  0  0  0  0  0  0  0  0  0  0
   -2.2690    1.0030   -0.6070 C   0  0  0  0  0  0  0  0  0  0  0  0
   -2.3130    2.2190   -0.2980 O   0  0  0  0  0  0  0  0  0  0  0  0
   -3.4320    0.3960   -1.0320 O   0  0  0  0  0  0  0  0  0  0  0  0
   -4.6750    1.0640   -1.1400 C   0  0  0  0  0  0  0  0  0  0  0  0
   -5.1300    1.6260    0.2030 C   0  0  0  0  0  0  0  0  0  0  0  0
   -0.9330   -1.1560   -0.8660 C   0  0  0  0  0  0  0  0  0  0  0  0
    0.1640   -1.8400   -0.7940 C   0  0  0  0  0  0  0  0  0  0  0  0
    1.4310   -1.2800   -0.3570 C   0  0  1  0  0  0  0  0  0  0  0  0
    2.4550   -1.5550   -1.3070 O   0  0  0  0  0  0  0  0  0  0  0  0
    4.3910    0.2390    1.0360 C   0  0  0  0  0  0  0  0  0  0  0  0
    4.3890    1.1340    0.1300 O   0  0  0  0  0  0  0  0  0  0  0  0
    5.5950   -0.3080    1.3810 O   0  0  0  0  0  0  0  0  0  0  0  0
  1  2  2  0
  2  3  1  0
  2 16  1  0
  4  3  1  1
  4  5  1  0
  4 14  1  0
  5  6  2  0
  6  7  1  0
  6 12  1  0
  7  8  2  0
  7  9  1  0
  9 10  1  0
 10 11  1  0
 12 13  2  0
 13 14  1  0
 14 15  1  6
 16 17  2  0
 16 18  1  0
M  END
>  <MODEL>  (61) 
       2

$$$$
../data/cho_sim50/90145918.pdb
     RDKit          3D

 18 18  0  0  1  0  0  0  0  0999 V2000
   -3.5640   -0.3190   -0.2390 C   0  0  0  0  0  0  0  0  0  0  0  0
   -2.8710    0.2410   -1.1820 C   0  0  0  0  0  0  0  0  0  0  0  0
   -2.0220   -0.3850   -1.9900 O   0  0  0  0  0  0  0  0  0  0  0  0
   -0.7760   -1.0210   -1.7400 C   0  0  1  0  0  0  0  0  0  0  0  0
    0.1920   -0.1200   -1.1530 C   0  0  0  0  0  0  0  0  0  0  0  0
    0.9390   -0.4310   -0.1220 C   0  0  0  0  0  0  0  0  0  0  0  0
    1.9050    0.5410    0.4320 C   0  0  0  0  0  0  0  0  0  0  0  0
    2.0100    1.6750   -0.0880 O   0  0  0  0  0  0  0  0  0  0  0  0
    2.6660    0.1720    1.5080 O   0  0  0  0  0  0  0  0  0  0  0  0
    3.6020    1.0320    2.0900 C   0  0  0  0  0  0  0  0  0  0  0  0
    2.9200    2.2660    2.5820 C   0  0  0  0  0  0  0  0  0  0  0  0
    0.8660   -1.7570    0.4640 C   0  0  0  0  0  0  0  0  0  0  0  0
    0.0440   -2.6290   -0.0650 C   0  0  0  0  0  0  0  0  0  0  0  0
   -0.8160   -2.3750   -1.2200 C   0  0  2  0  0  0  0  0  0  0  0  0
   -0.4770   -3.3410   -2.2160 O   0  0  0  0  0  0  0  0  0  0  0  0
   -3.0450    1.7070   -1.3710 C   0  0  0  0  0  0  0  0  0  0  0  0
   -3.8290    2.3780   -0.6480 O   0  0  0  0  0  0  0  0  0  0  0  0
   -2.3560    2.4120   -2.3490 O   0  0  0  0  0  0  0  0  0  0  0  0
  1  2  2  0
  2  3  1  0
  2 16  1  0
  4  3  1  1
  4  5  1  0
  4 14  1  0
  5  6  2  0
  6  7  1  0
  6 12  1  0
  7  8  2  0
  7  9  1  0
  9 10  1  0
 10 11  1  0
 12 13  2  0
 13 14  1  0
 14 15  1  6
 16 17  2  0
 16 18  1  0
M  END
>  <MODEL>  (62) 
       3

$$$$
../data/cho_sim50/90145918.pdb
     RDKit          3D

 18 18  0  0  1  0  0  0  0  0999 V2000
   -3.5090   -0.8460    2.1700 C   0  0  0  0  0  0  0  0  0  0  0  0
   -3.2070    0.1920    1.3850 C   0  0  0  0  0  0  0  0  0  0  0  0
   -1.8910    0.5140    1.1490 O   0  0  0  0  0  0  0  0  0  0  0  0
   -1.3380    0.6540   -0.1410 C   0  0  1  0  0  0  0  0  0  0  0  0
    0.0930    1.0000    0.0000 C   0  0  0  0  0  0  0  0  0  0  0  0
    1.0700    0.3300   -0.5620 C   0  0  0  0  0  0  0  0  0  0  0  0
    2.4690    0.7620   -0.3550 C   0  0  0  0  0  0  0  0  0  0  0  0
    2.7510    1.7570    0.3460 O   0  0  0  0  0  0  0  0  0  0  0  0
    3.5250    0.0740   -0.9370 O   0  0  0  0  0  0  0  0  0  0  0  0
    4.8680    0.4700   -0.7530 C   0  0  0  0  0  0  0  0  0  0  0  0
    5.2920    0.4570    0.6910 C   0  0  0  0  0  0  0  0  0  0  0  0
    0.7450   -0.8220   -1.3710 C   0  0  0  0  0  0  0  0  0  0  0  0
   -0.4880   -1.2230   -1.5650 C   0  0  0  0  0  0  0  0  0  0  0  0
   -1.6280   -0.5350   -0.9750 C   0  0  1  0  0  0  0  0  0  0  0  0
   -2.3570   -1.4980   -0.2380 O   0  0  0  0  0  0  0  0  0  0  0  0
   -4.2750    0.9730    0.7880 C   0  0  0  0  0  0  0  0  0  0  0  0
   -4.0110    1.9500    0.0510 O   0  0  0  0  0  0  0  0  0  0  0  0
   -5.6050    0.6560    1.0190 O   0  0  0  0  0  0  0  0  0  0  0  0
  1  2  2  0
  2  3  1  0
  2 16  1  0
  4  3  1  1
  4  5  1  0
  4 14  1  0
  5  6  2  0
  6  7  1  0
  6 12  1  0
  7  8  2  0
  7  9  1  0
  9 10  1  0
 10 11  1  0
 12 13  2  0
 13 14  1  0
 14 15  1  1
 16 17  2  0
 16 18  1  0
M  END
>  <MODEL>  (63) 
       4

$$$$
../data/cho_sim50/90473446.pdb
     RDKit          3D

 16 16  0  0  1  0  0  0  0  0999 V2000
    2.5440   -1.3700   -0.9590 C   0  0  0  0  0  0  0  0  0  0  0  0
    2.3090   -0.2220   -0.3580 C   0  0  0  0  0  0  0  0  0  0  0  0
    1.2870    0.5760   -0.8140 O   0  0  0  0  0  0  0  0  0  0  0  0
    0.1890    0.8860    0.0430 C   0  0  2  0  0  0  0  0  0  0  0  0
   -0.4160   -0.4180    0.3900 C   0  0  0  0  0  0  0  0  0  0  0  0
   -1.6600   -0.7180    0.1230 C   0  0  0  0  0  0  0  0  0  0  0  0
   -2.2080   -2.0180    0.4870 C   0  0  0  0  0  0  0  0  0  0  0  0
   -1.4800   -2.8590    1.0620 O   0  0  0  0  0  0  0  0  0  0  0  0
   -3.5140   -2.3440    0.2110 O   0  0  0  0  0  0  0  0  0  0  0  0
   -2.5000    0.2390   -0.5340 C   0  0  0  0  0  0  0  0  0  0  0  0
   -2.0650    1.4220   -0.8840 C   0  0  0  0  0  0  0  0  0  0  0  0
   -0.6880    1.8610   -0.6320 C   0  0  1  0  0  0  0  0  0  0  0  0
   -0.7290    3.0390    0.1460 O   0  0  0  0  0  0  0  0  0  0  0  0
    3.1170    0.2100    0.7800 C   0  0  0  0  0  0  0  0  0  0  0  0
    2.8830    1.2930    1.3330 O   0  0  0  0  0  0  0  0  0  0  0  0
    4.1530   -0.5860    1.2520 O   0  0  0  0  0  0  0  0  0  0  0  0
  1  2  2  0
  2  3  1  0
  2 14  1  0
  4  3  1  6
  4  5  1  0
  4 12  1  0
  5  6  2  0
  6  7  1  0
  6 10  1  0
  7  8  2  0
  7  9  1  0
 10 11  2  0
 11 12  1  0
 12 13  1  1
 14 15  2  0
 14 16  1  0
M  END
>  <MODEL>  (64) 
       1

$$$$
../data/cho_sim50/90473446.pdb
     RDKit          3D

 16 16  0  0  1  0  0  0  0  0999 V2000
   -2.5640   -0.5270   -1.7320 C   0  0  0  0  0  0  0  0  0  0  0  0
   -2.2790   -0.5770   -0.4520 C   0  0  0  0  0  0  0  0  0  0  0  0
   -1.5340    0.4350    0.1140 O   0  0  0  0  0  0  0  0  0  0  0  0
   -0.3020    0.8600   -0.4500 C   0  0  2  0  0  0  0  0  0  0  0  0
    0.6150   -0.3010   -0.4610 C   0  0  0  0  0  0  0  0  0  0  0  0
    1.7760   -0.3210    0.1190 C   0  0  0  0  0  0  0  0  0  0  0  0
    2.6150   -1.5430    0.0430 C   0  0  0  0  0  0  0  0  0  0  0  0
    2.2100   -2.5520   -0.5750 O   0  0  0  0  0  0  0  0  0  0  0  0
    3.8460   -1.5980    0.6450 O   0  0  0  0  0  0  0  0  0  0  0  0
    2.2470    0.8360    0.8310 C   0  0  0  0  0  0  0  0  0  0  0  0
    1.5070    1.9270    0.9030 C   0  0  0  0  0  0  0  0  0  0  0  0
    0.1780    2.0560    0.2820 C   0  0  1  0  0  0  0  0  0  0  0  0
    0.2470    3.1290   -0.6290 O   0  0  0  0  0  0  0  0  0  0  0  0
   -2.7330   -1.6720    0.3700 C   0  0  0  0  0  0  0  0  0  0  0  0
   -3.4090   -2.5880   -0.1480 O   0  0  0  0  0  0  0  0  0  0  0  0
   -2.4420   -1.7390    1.7160 O   0  0  0  0  0  0  0  0  0  0  0  0
  1  2  2  0
  2  3  1  0
  2 14  1  0
  4  3  1  1
  4  5  1  0
  4 12  1  0
  5  6  2  0
  6  7  1  0
  6 10  1  0
  7  8  2  0
  7  9  1  0
 10 11  2  0
 11 12  1  0
 12 13  1  6
 14 15  2  0
 14 16  1  0
M  END
>  <MODEL>  (65) 
       2

$$$$
../data/cho_sim50/101035447.pdb
     RDKit          3D

 16 16  0  0  1  0  0  0  0  0999 V2000
    2.1420    2.0810   -0.7790 C   0  0  0  0  0  0  0  0  0  0  0  0
    2.0930    0.9450   -0.1060 C   0  0  0  0  0  0  0  0  0  0  0  0
    1.5460   -0.1710   -0.7310 O   0  0  0  0  0  0  0  0  0  0  0  0
    0.1460   -0.0250   -1.0900 C   0  0  2  0  0  0  0  0  0  0  0  0
   -0.5400    0.2140    0.1730 C   0  0  0  0  0  0  0  0  0  0  0  0
   -1.5190   -0.5210    0.6490 C   0  0  0  0  0  0  0  0  0  0  0  0
   -2.1740   -0.2300    1.9320 C   0  0  0  0  0  0  0  0  0  0  0  0
   -3.0930   -0.9480    2.3460 O   0  0  0  0  0  0  0  0  0  0  0  0
   -1.7300    0.8620    2.6490 O   0  0  0  0  0  0  0  0  0  0  0  0
   -1.9650   -1.6570   -0.1390 C   0  0  0  0  0  0  0  0  0  0  0  0
   -1.4140   -1.9480   -1.2930 C   0  0  0  0  0  0  0  0  0  0  0  0
   -0.3280   -1.1670   -1.8710 C   0  0  1  0  0  0  0  0  0  0  0  0
   -0.8670   -0.6520   -3.1030 O   0  0  0  0  0  0  0  0  0  0  0  0
    2.6080    0.8890    1.2600 C   0  0  0  0  0  0  0  0  0  0  0  0
    3.0920    1.9210    1.7820 O   0  0  0  0  0  0  0  0  0  0  0  0
    2.5790   -0.2820    2.0090 O   0  0  0  0  0  0  0  0  0  0  0  0
  1  2  2  0
  2  3  1  0
  2 14  1  0
  4  3  1  1
  4  5  1  0
  4 12  1  0
  5  6  2  0
  6  7  1  0
  6 10  1  0
  7  8  2  0
  7  9  1  0
 10 11  2  0
 11 12  1  0
 12 13  1  6
 14 15  2  0
 14 16  1  0
M  END
>  <MODEL>  (66) 
       1

$$$$
../data/cho_sim50/101035447.pdb
     RDKit          3D

 16 16  0  0  1  0  0  0  0  0999 V2000
   -2.8380   -0.3470   -1.2710 C   0  0  0  0  0  0  0  0  0  0  0  0
   -2.4320    0.2820   -0.1930 C   0  0  0  0  0  0  0  0  0  0  0  0
   -1.1640    0.7570   -0.1250 O   0  0  0  0  0  0  0  0  0  0  0  0
   -0.0900    0.1330    0.5590 C   0  0  2  0  0  0  0  0  0  0  0  0
    1.0790    1.0170    0.3500 C   0  0  0  0  0  0  0  0  0  0  0  0
    2.2140    0.6420   -0.1570 C   0  0  0  0  0  0  0  0  0  0  0  0
    3.2850    1.6250   -0.3060 C   0  0  0  0  0  0  0  0  0  0  0  0
    3.1240    2.8180    0.0470 O   0  0  0  0  0  0  0  0  0  0  0  0
    4.5230    1.2840   -0.8410 O   0  0  0  0  0  0  0  0  0  0  0  0
    2.3960   -0.7350   -0.5630 C   0  0  0  0  0  0  0  0  0  0  0  0
    1.4390   -1.5980   -0.4270 C   0  0  0  0  0  0  0  0  0  0  0  0
    0.1270   -1.2740    0.1320 C   0  0  1  0  0  0  0  0  0  0  0  0
   -0.0480   -2.1450    1.2440 O   0  0  0  0  0  0  0  0  0  0  0  0
   -3.3550    0.4540    0.9060 C   0  0  0  0  0  0  0  0  0  0  0  0
   -3.0380    1.0500    1.9790 O   0  0  0  0  0  0  0  0  0  0  0  0
   -4.6530   -0.0310    0.8390 O   0  0  0  0  0  0  0  0  0  0  0  0
  1  2  2  0
  2  3  1  0
  2 14  1  0
  4  3  1  6
  4  5  1  0
  4 12  1  0
  5  6  2  0
  6  7  1  0
  6 10  1  0
  7  8  2  0
  7  9  1  0
 10 11  2  0
 11 12  1  0
 12 13  1  1
 14 15  2  0
 14 16  1  0
M  END
>  <MODEL>  (67) 
       2

$$$$
../data/cho_sim50/101035447.pdb
     RDKit          3D

 16 16  0  0  1  0  0  0  0  0999 V2000
   -3.0150    0.8410   -0.2450 C   0  0  0  0  0  0  0  0  0  0  0  0
   -2.3850   -0.2930   -0.0430 C   0  0  0  0  0  0  0  0  0  0  0  0
   -1.3490   -0.6390   -0.8830 O   0  0  0  0  0  0  0  0  0  0  0  0
   -0.2210    0.2790   -0.8750 C   0  0  2  0  0  0  0  0  0  0  0  0
    0.8110   -0.1710   -1.7870 C   0  0  0  0  0  0  0  0  0  0  0  0
    2.0770   -0.2500   -1.4490 C   0  0  0  0  0  0  0  0  0  0  0  0
    3.0810   -0.7020   -2.3850 C   0  0  0  0  0  0  0  0  0  0  0  0
    2.7740   -1.0350   -3.5580 O   0  0  0  0  0  0  0  0  0  0  0  0
    4.3940   -0.7750   -2.0060 O   0  0  0  0  0  0  0  0  0  0  0  0
    2.4780    0.1140   -0.0880 C   0  0  0  0  0  0  0  0  0  0  0  0
    1.5950    0.5120    0.7850 C   0  0  0  0  0  0  0  0  0  0  0  0
    0.1790    0.6210    0.4880 C   0  0  1  0  0  0  0  0  0  0  0  0
   -0.3050    1.9270    0.7850 O   0  0  0  0  0  0  0  0  0  0  0  0
   -2.7810   -1.1590    1.0460 C   0  0  0  0  0  0  0  0  0  0  0  0
   -2.2200   -2.2570    1.2940 O   0  0  0  0  0  0  0  0  0  0  0  0
   -3.8300   -0.8000    1.8890 O   0  0  0  0  0  0  0  0  0  0  0  0
  1  2  2  0
  2  3  1  0
  2 14  1  0
  4  3  1  1
  4  5  1  0
  4 12  1  0
  5  6  2  0
  6  7  1  0
  6 10  1  0
  7  8  2  0
  7  9  1  0
 10 11  2  0
 11 12  1  0
 12 13  1  6
 14 15  2  0
 14 16  1  0
M  END
>  <MODEL>  (68) 
       3

$$$$
../data/cho_sim50/101072171.pdb
     RDKit          3D

 16 16  0  0  1  0  0  0  0  0999 V2000
   -3.0670    0.3960   -1.2660 C   0  0  0  0  0  0  0  0  0  0  0  0
   -2.4230   -0.5700   -0.6410 C   0  0  0  0  0  0  0  0  0  0  0  0
   -1.0920   -0.8930   -0.9830 O   0  0  0  0  0  0  0  0  0  0  0  0
   -0.1420    0.1430   -0.6960 C   0  0  2  0  0  0  0  0  0  0  0  0
    1.2170   -0.2380   -1.0670 C   0  0  0  0  0  0  0  0  0  0  0  0
    2.2530   -0.1360   -0.2710 C   0  0  0  0  0  0  0  0  0  0  0  0
    3.6100   -0.5380   -0.7010 C   0  0  0  0  0  0  0  0  0  0  0  0
    3.7680   -0.9910   -1.8670 O   0  0  0  0  0  0  0  0  0  0  0  0
    4.6860   -0.4250    0.1450 O   0  0  0  0  0  0  0  0  0  0  0  0
    2.0840    0.3810    1.0660 C   0  0  0  0  0  0  0  0  0  0  0  0
    0.8930    0.7490    1.4860 C   0  0  0  0  0  0  0  0  0  0  0  0
   -0.3270    0.6740    0.6720 C   0  0  1  0  0  0  0  0  0  0  0  0
   -0.9220    1.9390    0.6920 O   0  0  0  0  0  0  0  0  0  0  0  0
   -3.1180   -1.2940    0.4100 C   0  0  0  0  0  0  0  0  0  0  0  0
   -4.2970   -0.9740    0.6800 O   0  0  0  0  0  0  0  0  0  0  0  0
   -2.5370   -2.3200    1.1240 O   0  0  0  0  0  0  0  0  0  0  0  0
  1  2  2  0
  2  3  1  0
  2 14  1  0
  4  3  1  1
  4  5  1  0
  4 12  1  0
  5  6  2  0
  6  7  1  0
  6 10  1  0
  7  8  2  0
  7  9  1  0
 10 11  2  0
 11 12  1  0
 12 13  1  6
 14 15  2  0
 14 16  1  0
M  END
>  <MODEL>  (69) 
       1

$$$$
../data/cho_sim50/101072171.pdb
     RDKit          3D

 16 16  0  0  1  0  0  0  0  0999 V2000
   -1.9730    1.6460    1.5900 C   0  0  0  0  0  0  0  0  0  0  0  0
   -2.0250    0.9180    0.5010 C   0  0  0  0  0  0  0  0  0  0  0  0
   -1.0560    1.1110   -0.4700 O   0  0  0  0  0  0  0  0  0  0  0  0
   -0.1560    0.0420   -0.8270 C   0  0  2  0  0  0  0  0  0  0  0  0
    0.6200   -0.3880    0.3210 C   0  0  0  0  0  0  0  0  0  0  0  0
    1.9190   -0.5240    0.3810 C   0  0  0  0  0  0  0  0  0  0  0  0
    2.6230   -0.9660    1.5900 C   0  0  0  0  0  0  0  0  0  0  0  0
    3.8530   -1.0840    1.6130 O   0  0  0  0  0  0  0  0  0  0  0  0
    1.8460   -1.2460    2.7050 O   0  0  0  0  0  0  0  0  0  0  0  0
    2.6540   -0.2000   -0.8490 C   0  0  0  0  0  0  0  0  0  0  0  0
    2.0520    0.1980   -1.9300 C   0  0  0  0  0  0  0  0  0  0  0  0
    0.6200    0.3620   -2.0380 C   0  0  1  0  0  0  0  0  0  0  0  0
    0.0960   -0.2740   -3.1880 O   0  0  0  0  0  0  0  0  0  0  0  0
   -3.0910   -0.0610    0.3520 C   0  0  0  0  0  0  0  0  0  0  0  0
   -3.1500   -0.7750   -0.7030 O   0  0  0  0  0  0  0  0  0  0  0  0
   -4.0530   -0.2580    1.3090 O   0  0  0  0  0  0  0  0  0  0  0  0
  1  2  2  0
  2  3  1  0
  2 14  1  0
  4  3  1  1
  4  5  1  0
  4 12  1  0
  5  6  2  0
  6  7  1  0
  6 10  1  0
  7  8  2  0
  7  9  1  0
 10 11  2  0
 11 12  1  0
 12 13  1  6
 14 15  2  0
 14 16  1  0
M  END
>  <MODEL>  (70) 
       2

$$$$
../data/cho_sim50/101072171.pdb
     RDKit          3D

 16 16  0  0  1  0  0  0  0  0999 V2000
    2.6390   -1.4350    1.4430 C   0  0  0  0  0  0  0  0  0  0  0  0
    1.6930   -0.5500    1.5660 C   0  0  0  0  0  0  0  0  0  0  0  0
    0.3630   -0.9520    1.3910 O   0  0  0  0  0  0  0  0  0  0  0  0
   -0.0810   -1.0720    0.0390 C   0  0  2  0  0  0  0  0  0  0  0  0
    0.0750    0.2640   -0.5650 C   0  0  0  0  0  0  0  0  0  0  0  0
   -0.9160    0.9240   -1.1230 C   0  0  0  0  0  0  0  0  0  0  0  0
   -0.6650    2.2610   -1.7050 C   0  0  0  0  0  0  0  0  0  0  0  0
   -1.6270    2.8750   -2.2330 O   0  0  0  0  0  0  0  0  0  0  0  0
    0.6130    2.7930   -1.6510 O   0  0  0  0  0  0  0  0  0  0  0  0
   -2.2530    0.3400   -1.1660 C   0  0  0  0  0  0  0  0  0  0  0  0
   -2.4690   -0.8380   -0.6510 C   0  0  0  0  0  0  0  0  0  0  0  0
   -1.4330   -1.6680   -0.0010 C   0  0  1  0  0  0  0  0  0  0  0  0
   -1.3840   -2.8980   -0.6980 O   0  0  0  0  0  0  0  0  0  0  0  0
    2.0250    0.8260    1.8800 C   0  0  0  0  0  0  0  0  0  0  0  0
    3.2020    1.2030    2.0400 O   0  0  0  0  0  0  0  0  0  0  0  0
    1.0050    1.7460    2.0060 O   0  0  0  0  0  0  0  0  0  0  0  0
  1  2  2  0
  2  3  1  0
  2 14  1  0
  4  3  1  1
  4  5  1  0
  4 12  1  0
  5  6  2  0
  6  7  1  0
  6 10  1  0
  7  8  2  0
  7  9  1  0
 10 11  2  0
 11 12  1  0
 12 13  1  6
 14 15  2  0
 14 16  1  0
M  END
>  <MODEL>  (71) 
       3

$$$$
../data/cho_sim50/101931542.pdb
     RDKit          3D

 17 17  0  0  1  0  0  0  0  0999 V2000
    3.0250   -0.1020   -1.0780 C   0  0  0  0  0  0  0  0  0  0  0  0
    2.3270    0.1640   -0.0030 C   0  0  0  0  0  0  0  0  0  0  0  0
    1.4490   -0.7960    0.4960 O   0  0  0  0  0  0  0  0  0  0  0  0
    0.2470   -1.0270   -0.2800 C   0  0  2  0  0  0  0  0  0  0  0  0
   -0.4500    0.2530   -0.3180 C   0  0  0  0  0  0  0  0  0  0  0  0
    0.1810    1.3710   -0.8040 F   0  0  0  0  0  0  0  0  0  0  0  0
   -1.6730    0.4030    0.0940 C   0  0  0  0  0  0  0  0  0  0  0  0
   -2.3290    1.6960    0.0380 C   0  0  0  0  0  0  0  0  0  0  0  0
   -3.5130    1.8680    0.4310 O   0  0  0  0  0  0  0  0  0  0  0  0
   -1.6570    2.8070   -0.4610 O   0  0  0  0  0  0  0  0  0  0  0  0
   -2.4050   -0.7230    0.6220 C   0  0  0  0  0  0  0  0  0  0  0  0
   -1.8380   -1.9090    0.6900 C   0  0  0  0  0  0  0  0  0  0  0  0
   -0.4760   -2.1830    0.2560 C   0  0  1  0  0  0  0  0  0  0  0  0
   -0.4240   -3.2440   -0.6750 O   0  0  0  0  0  0  0  0  0  0  0  0
    2.4780    1.4560    0.6510 C   0  0  0  0  0  0  0  0  0  0  0  0
    3.2660    2.2920    0.1870 O   0  0  0  0  0  0  0  0  0  0  0  0
    1.7460    1.7590    1.7960 O   0  0  0  0  0  0  0  0  0  0  0  0
  1  2  2  0
  2  3  1  0
  2 15  1  0
  4  3  1  1
  4  5  1  0
  4 13  1  0
  5  6  1  0
  5  7  2  0
  7  8  1  0
  7 11  1  0
  8  9  2  0
  8 10  1  0
 11 12  2  0
 12 13  1  0
 13 14  1  6
 15 16  2  0
 15 17  1  0
M  END
>  <MODEL>  (72) 
       1

$$$$
../data/cho_sim50/101931542.pdb
     RDKit          3D

 17 17  0  0  1  0  0  0  0  0999 V2000
   -2.7890   -1.3120   -0.9070 C   0  0  0  0  0  0  0  0  0  0  0  0
   -2.4210   -0.1080   -0.5590 C   0  0  0  0  0  0  0  0  0  0  0  0
   -1.2110    0.4040   -0.9670 O   0  0  0  0  0  0  0  0  0  0  0  0
   -0.1350    0.5020   -0.0340 C   0  0  2  0  0  0  0  0  0  0  0  0
    1.0660    1.0720   -0.6670 C   0  0  0  0  0  0  0  0  0  0  0  0
    0.9560    2.2560   -1.3940 F   0  0  0  0  0  0  0  0  0  0  0  0
    2.2330    0.4910   -0.5620 C   0  0  0  0  0  0  0  0  0  0  0  0
    3.4130    1.1120   -1.2230 C   0  0  0  0  0  0  0  0  0  0  0  0
    3.2650    2.1650   -1.8570 O   0  0  0  0  0  0  0  0  0  0  0  0
    4.6630    0.5160   -1.1260 O   0  0  0  0  0  0  0  0  0  0  0  0
    2.4010   -0.7330    0.1760 C   0  0  0  0  0  0  0  0  0  0  0  0
    1.3910   -1.3190    0.7760 C   0  0  0  0  0  0  0  0  0  0  0  0
    0.0380   -0.7600    0.7270 C   0  0  1  0  0  0  0  0  0  0  0  0
   -0.4600   -0.6320    2.0550 O   0  0  0  0  0  0  0  0  0  0  0  0
   -3.2910    0.7180    0.2680 C   0  0  0  0  0  0  0  0  0  0  0  0
   -2.9650    1.8780    0.6170 O   0  0  0  0  0  0  0  0  0  0  0  0
   -4.5220    0.2220    0.6940 O   0  0  0  0  0  0  0  0  0  0  0  0
  1  2  2  0
  2  3  1  0
  2 15  1  0
  4  3  1  6
  4  5  1  0
  4 13  1  0
  5  6  1  0
  5  7  2  0
  7  8  1  0
  7 11  1  0
  8  9  2  0
  8 10  1  0
 11 12  2  0
 12 13  1  0
 13 14  1  1
 15 16  2  0
 15 17  1  0
M  END
>  <MODEL>  (73) 
       2

$$$$
../data/cho_sim50/101931542.pdb
     RDKit          3D

 17 17  0  0  1  0  0  0  0  0999 V2000
    2.3110   -1.1200   -1.0430 C   0  0  0  0  0  0  0  0  0  0  0  0
    2.2190    0.1280   -0.6310 C   0  0  0  0  0  0  0  0  0  0  0  0
    1.0380    0.8120   -0.9090 O   0  0  0  0  0  0  0  0  0  0  0  0
   -0.0240    0.8780    0.0640 C   0  0  2  0  0  0  0  0  0  0  0  0
   -0.4990   -0.4550    0.4010 C   0  0  0  0  0  0  0  0  0  0  0  0
    0.3820   -1.4280    0.8660 F   0  0  0  0  0  0  0  0  0  0  0  0
   -1.7530   -0.8180    0.2930 C   0  0  0  0  0  0  0  0  0  0  0  0
   -2.1310   -2.1990    0.6630 C   0  0  0  0  0  0  0  0  0  0  0  0
   -3.3290   -2.5320    0.5550 O   0  0  0  0  0  0  0  0  0  0  0  0
   -1.2120   -3.1020    1.1130 O   0  0  0  0  0  0  0  0  0  0  0  0
   -2.8120    0.0740   -0.1790 C   0  0  0  0  0  0  0  0  0  0  0  0
   -2.4390    1.2860   -0.4970 C   0  0  0  0  0  0  0  0  0  0  0  0
   -1.0690    1.7940   -0.4140 C   0  0  1  0  0  0  0  0  0  0  0  0
   -1.1460    2.9620    0.3920 O   0  0  0  0  0  0  0  0  0  0  0  0
    3.3270    0.7160    0.0760 C   0  0  0  0  0  0  0  0  0  0  0  0
    3.2560    1.8970    0.4730 O   0  0  0  0  0  0  0  0  0  0  0  0
    4.4680   -0.0100    0.3210 O   0  0  0  0  0  0  0  0  0  0  0  0
  1  2  2  0
  2  3  1  0
  2 15  1  0
  4  3  1  6
  4  5  1  0
  4 13  1  0
  5  6  1  0
  5  7  2  0
  7  8  1  0
  7 11  1  0
  8  9  2  0
  8 10  1  0
 11 12  2  0
 12 13  1  0
 13 14  1  1
 15 16  2  0
 15 17  1  0
M  END
>  <MODEL>  (74) 
       3

$$$$
../data/cho_sim50/102515144.pdb
     RDKit          3D

 14 14  0  0  0  0  0  0  0  0999 V2000
    4.5350    1.7640   -0.4880 O   0  0  0  0  0  0  0  0  0  0  0  0
    4.0100    0.6810   -0.1220 C   0  0  0  0  0  0  0  0  0  0  0  0
    4.8460   -0.3040    0.3450 O   0  0  0  0  0  0  0  0  0  0  0  0
    2.5510    0.5050   -0.2040 C   0  0  0  0  0  0  0  0  0  0  0  0
    1.9430   -0.6540    0.1820 C   0  0  0  0  0  0  0  0  0  0  0  0
    0.5790   -0.8060    0.1000 C   0  0  0  0  0  0  0  0  0  0  0  0
   -0.1730    0.2450   -0.3840 C   0  0  0  0  0  0  0  0  0  0  0  0
   -1.6220    0.1970   -0.5140 C   0  0  0  0  0  0  0  0  0  0  0  0
   -2.3700   -0.8250   -0.1960 C   0  0  0  0  0  0  0  0  0  0  0  0
   -3.8630   -0.8300   -0.3470 C   0  0  0  0  0  0  0  0  0  0  0  0
   -4.3110    0.3840   -0.8630 O   0  0  0  0  0  0  0  0  0  0  0  0
    0.5140    1.3760   -0.7510 C   0  0  0  0  0  0  0  0  0  0  0  0
   -0.1070    2.3830   -1.2050 O   0  0  0  0  0  0  0  0  0  0  0  0
    1.8170    1.4880   -0.6600 O   0  0  0  0  0  0  0  0  0  0  0  0
  1  2  2  0
  2  3  1  0
  2  4  1  0
  4  5  2  0
  4 14  1  0
  5  6  1  0
  6  7  2  0
  7  8  1  0
  7 12  1  0
  8  9  2  0
  9 10  1  0
 10 11  1  0
 12 13  2  0
 12 14  1  0
M  END
$$$$
../data/cho_sim50/102515145.pdb
     RDKit          3D

 14 14  0  0  0  0  0  0  0  0999 V2000
    4.6930   -1.3060   -0.3390 O   0  0  0  0  0  0  0  0  0  0  0  0
    4.0300   -0.2450   -0.4150 C   0  0  0  0  0  0  0  0  0  0  0  0
    4.6990    0.9530   -0.6030 O   0  0  0  0  0  0  0  0  0  0  0  0
    2.5890   -0.2940   -0.3070 C   0  0  0  0  0  0  0  0  0  0  0  0
    1.8840    0.8800   -0.3940 C   0  0  0  0  0  0  0  0  0  0  0  0
    0.5210    0.8230   -0.2900 C   0  0  0  0  0  0  0  0  0  0  0  0
   -0.0930   -0.3900   -0.1050 C   0  0  0  0  0  0  0  0  0  0  0  0
   -1.5370   -0.5300    0.0150 C   0  0  0  0  0  0  0  0  0  0  0  0
   -2.3660    0.4910   -0.0450 C   0  0  0  0  0  0  0  0  0  0  0  0
   -3.8500    0.2290    0.0910 C   0  0  0  0  0  0  0  0  0  0  0  0
   -4.5310    0.6410   -1.0270 O   0  0  0  0  0  0  0  0  0  0  0  0
    0.6750   -1.5250   -0.0270 C   0  0  0  0  0  0  0  0  0  0  0  0
    0.1660   -2.6760    0.1440 O   0  0  0  0  0  0  0  0  0  0  0  0
    1.9700   -1.4270   -0.1310 O   0  0  0  0  0  0  0  0  0  0  0  0
  1  2  2  0
  2  3  1  0
  2  4  1  0
  4  5  2  0
  4 14  1  0
  5  6  1  0
  6  7  2  0
  7  8  1  0
  7 12  1  0
  8  9  2  0
  9 10  1  0
 10 11  1  0
 12 13  2  0
 12 14  1  0
M  END
$$$$
../data/cho_sim50/118797439.pdb
     RDKit          3D

 16 16  0  0  1  0  0  0  0  0999 V2000
    1.6880    2.0180   -0.7810 C   0  0  0  0  0  0  0  0  0  0  0  0
    1.8480    0.7180   -0.9030 C   0  0  0  0  0  0  0  0  0  0  0  0
    0.7910   -0.0500   -1.3880 O   0  0  0  0  0  0  0  0  0  0  0  0
    0.1580   -0.8960   -0.4170 C   0  0  1  0  0  0  0  0  0  0  0  0
   -0.3620   -0.0080    0.6360 C   0  0  0  0  0  0  0  0  0  0  0  0
   -1.5990    0.0350    1.0380 C   0  0  0  0  0  0  0  0  0  0  0  0
   -1.9990    0.9520    2.0850 C   0  0  0  0  0  0  0  0  0  0  0  0
   -3.1810    0.9930    2.4690 O   0  0  0  0  0  0  0  0  0  0  0  0
   -1.1010    1.8140    2.7000 O   0  0  0  0  0  0  0  0  0  0  0  0
   -2.5780   -0.8440    0.4290 C   0  0  0  0  0  0  0  0  0  0  0  0
   -2.2090   -1.6820   -0.5290 C   0  0  0  0  0  0  0  0  0  0  0  0
   -0.8390   -1.7940   -1.0400 C   0  0  1  0  0  0  0  0  0  0  0  0
   -0.8130   -1.5960   -2.4380 O   0  0  0  0  0  0  0  0  0  0  0  0
    3.0920    0.0670   -0.5490 C   0  0  0  0  0  0  0  0  0  0  0  0
    3.2340   -1.1700   -0.6690 O   0  0  0  0  0  0  0  0  0  0  0  0
    4.1710    0.7870   -0.0630 O   0  0  0  0  0  0  0  0  0  0  0  0
  1  2  2  0
  2  3  1  0
  2 14  1  0
  4  3  1  6
  4  5  1  0
  4 12  1  0
  5  6  2  0
  6  7  1  0
  6 10  1  0
  7  8  2  0
  7  9  1  0
 10 11  2  0
 11 12  1  0
 12 13  1  6
 14 15  2  0
 14 16  1  0
M  END
>  <MODEL>  (77) 
       1

$$$$
../data/cho_sim50/118797439.pdb
     RDKit          3D

 16 16  0  0  1  0  0  0  0  0999 V2000
    2.4540   -1.9770    0.2860 C   0  0  0  0  0  0  0  0  0  0  0  0
    2.3730   -0.6750    0.2240 C   0  0  0  0  0  0  0  0  0  0  0  0
    1.2090   -0.0140    0.5690 O   0  0  0  0  0  0  0  0  0  0  0  0
   -0.0840   -0.5760    0.4220 C   0  0  1  0  0  0  0  0  0  0  0  0
   -1.0350    0.4400    0.8980 C   0  0  0  0  0  0  0  0  0  0  0  0
   -1.9960    1.0090    0.1990 C   0  0  0  0  0  0  0  0  0  0  0  0
   -2.8720    2.0070    0.7920 C   0  0  0  0  0  0  0  0  0  0  0  0
   -2.6840    2.3100    1.9920 O   0  0  0  0  0  0  0  0  0  0  0  0
   -3.8950    2.6370    0.1110 O   0  0  0  0  0  0  0  0  0  0  0  0
   -2.1380    0.5890   -1.1920 C   0  0  0  0  0  0  0  0  0  0  0  0
   -1.3420   -0.3190   -1.7250 C   0  0  0  0  0  0  0  0  0  0  0  0
   -0.2540   -0.9910   -1.0040 C   0  0  2  0  0  0  0  0  0  0  0  0
   -0.5120   -2.3810   -1.1050 O   0  0  0  0  0  0  0  0  0  0  0  0
    3.4980    0.1380   -0.2080 C   0  0  0  0  0  0  0  0  0  0  0  0
    4.5580   -0.4500   -0.5230 O   0  0  0  0  0  0  0  0  0  0  0  0
    3.4740    1.5180   -0.2940 O   0  0  0  0  0  0  0  0  0  0  0  0
  1  2  2  0
  2  3  1  0
  2 14  1  0
  4  3  1  6
  4  5  1  0
  4 12  1  0
  5  6  2  0
  6  7  1  0
  6 10  1  0
  7  8  2  0
  7  9  1  0
 10 11  2  0
 11 12  1  0
 12 13  1  1
 14 15  2  0
 14 16  1  0
M  END
>  <MODEL>  (78) 
       2

$$$$
../data/cho_sim50/138623598.pdb
     RDKit          3D

 12 12  0  0  1  0  0  0  0  0999 V2000
   -2.7360   -1.4060    0.4270 C   0  0  0  0  0  0  0  0  0  0  0  0
   -1.7500   -0.9270   -0.4140 O   0  0  0  0  0  0  0  0  0  0  0  0
   -0.8240   -0.1160    0.2230 C   0  0  1  0  0  0  0  0  0  0  0  0
    0.5200   -0.7180    0.2330 C   0  0  0  0  0  0  0  0  0  0  0  0
    1.6070   -0.1310   -0.2100 C   0  0  0  0  0  0  0  0  0  0  0  0
    2.8880   -0.8210   -0.1510 C   0  0  0  0  0  0  0  0  0  0  0  0
    3.9390   -0.2810   -0.5670 O   0  0  0  0  0  0  0  0  0  0  0  0
    3.0000   -2.1040    0.3670 O   0  0  0  0  0  0  0  0  0  0  0  0
    1.4870    1.2130   -0.7520 C   0  0  0  0  0  0  0  0  0  0  0  0
    0.3320    1.8540   -0.8130 C   0  0  0  0  0  0  0  0  0  0  0  0
   -0.9110    1.2530   -0.3370 C   0  0  2  0  0  0  0  0  0  0  0  0
   -1.4900    2.1500    0.5930 O   0  0  0  0  0  0  0  0  0  0  0  0
  1  2  1  0
  3  2  1  6
  3  4  1  0
  3 11  1  0
  4  5  2  0
  5  6  1  0
  5  9  1  0
  6  7  2  0
  6  8  1  0
  9 10  2  0
 10 11  1  0
 11 12  1  1
M  END
$$$$
../data/cho_sim50/139992404.pdb
     RDKit          3D

 15 15  0  0  1  0  0  0  0  0999 V2000
    2.0510    2.2180    1.3930 O   0  0  0  0  0  0  0  0  0  0  0  0
    2.0750    1.1410    0.6800 C   0  0  0  0  0  0  0  0  0  0  0  0
    3.2800    0.7960    0.2080 O   0  0  0  0  0  0  0  0  0  0  0  0
    0.8110    0.4710    0.4960 C   0  0  0  0  0  0  0  0  0  0  0  0
    0.6960   -0.6420   -0.2130 C   0  0  0  0  0  0  0  0  0  0  0  0
    1.7850   -1.3270   -0.8840 C   0  0  0  0  0  0  0  0  0  0  0  0
    1.4420   -2.3970   -1.5180 O   0  0  0  0  0  0  0  0  0  0  0  0
    3.0930   -1.0340   -0.9570 O   0  0  0  0  0  0  0  0  0  0  0  0
   -0.5930   -1.1880   -0.3110 O   0  0  0  0  0  0  0  0  0  0  0  0
   -1.7420   -0.7020    0.2420 C   0  0  2  0  0  0  0  0  0  0  0  0
   -2.7920   -0.3930   -0.7900 C   0  0  0  0  0  0  0  0  0  0  0  0
   -2.5160   -0.6040   -1.9900 O   0  0  0  0  0  0  0  0  0  0  0  0
   -4.0340    0.1080   -0.4720 O   0  0  0  0  0  0  0  0  0  0  0  0
   -1.5500    0.5370    1.0180 C   0  0  0  0  0  0  0  0  0  0  0  0
   -0.3800    1.0650    1.1280 C   0  0  0  0  0  0  0  0  0  0  0  0
  1  2  2  0
  2  3  1  0
  2  4  1  0
  4  5  2  0
  4 15  1  0
  5  6  1  0
  5  9  1  0
  6  7  2  0
  6  8  1  0
  9 10  1  0
 10 11  1  6
 10 14  1  0
 11 12  2  0
 11 13  1  0
 14 15  2  0
M  END
>  <MODEL>  (80) 
       1

$$$$
../data/cho_sim50/139992404.pdb
     RDKit          3D

 15 15  0  0  1  0  0  0  0  0999 V2000
   -3.2940    0.6090    0.0820 O   0  0  0  0  0  0  0  0  0  0  0  0
   -2.4590   -0.2110    0.4280 C   0  0  0  0  0  0  0  0  0  0  0  0
   -2.9310   -1.2220    1.2810 O   0  0  0  0  0  0  0  0  0  0  0  0
   -1.0730   -0.2260    0.0470 C   0  0  0  0  0  0  0  0  0  0  0  0
   -0.4690    0.6240   -0.7260 C   0  0  0  0  0  0  0  0  0  0  0  0
   -1.1250    1.7460   -1.3360 C   0  0  0  0  0  0  0  0  0  0  0  0
   -0.4260    2.5280   -2.0880 O   0  0  0  0  0  0  0  0  0  0  0  0
   -2.4250    2.1030   -1.2220 O   0  0  0  0  0  0  0  0  0  0  0  0
    0.8990    0.4690   -1.0030 O   0  0  0  0  0  0  0  0  0  0  0  0
    1.7510   -0.5090   -0.5530 C   0  0  1  0  0  0  0  0  0  0  0  0
    2.8810    0.0720    0.2410 C   0  0  0  0  0  0  0  0  0  0  0  0
    2.9180    1.3110    0.3940 O   0  0  0  0  0  0  0  0  0  0  0  0
    3.8610   -0.7430    0.7910 O   0  0  0  0  0  0  0  0  0  0  0  0
    1.0270   -1.4530    0.3220 C   0  0  0  0  0  0  0  0  0  0  0  0
   -0.2450   -1.3240    0.5900 C   0  0  0  0  0  0  0  0  0  0  0  0
  1  2  2  0
  2  3  1  0
  2  4  1  0
  4  5  2  0
  4 15  1  0
  5  6  1  0
  5  9  1  0
  6  7  2  0
  6  8  1  0
  9 10  1  0
 10 11  1  1
 10 14  1  0
 11 12  2  0
 11 13  1  0
 14 15  2  0
M  END
>  <MODEL>  (81) 
       2

$$$$
../data/cho_sim50/141076116.pdb
     RDKit          3D

 20 20  0  0  1  0  0  0  0  0999 V2000
   -1.5730    3.1950    0.7370 O   0  0  0  0  0  0  0  0  0  0  0  0
   -2.3100    2.1890    0.7380 C   0  0  0  0  0  0  0  0  0  0  0  0
   -3.0470    1.1610    0.3510 C   0  0  0  0  0  0  0  0  0  0  0  0
   -4.4810    1.2930    0.1520 C   0  0  0  0  0  0  0  0  0  0  0  0
   -5.2690    0.3030   -0.2340 C   0  0  0  0  0  0  0  0  0  0  0  0
   -4.6500   -0.9890   -0.4690 C   0  0  0  0  0  0  0  0  0  0  0  0
   -3.3470   -1.1930   -0.3110 C   0  0  0  0  0  0  0  0  0  0  0  0
   -2.3910   -0.1560    0.1150 C   0  0  1  0  0  0  0  0  0  0  0  0
   -1.3880    0.0450   -0.8560 O   0  0  0  0  0  0  0  0  0  0  0  0
   -0.0580   -0.0940   -0.4830 C   0  0  0  0  0  0  0  0  0  0  0  0
    0.1870   -0.3910    0.7000 O   0  0  0  0  0  0  0  0  0  0  0  0
    1.0590    0.0960   -1.4280 C   0  0  0  0  0  0  0  0  0  0  0  0
    2.2820   -0.1200   -0.7630 O   0  0  0  0  0  0  0  0  0  0  0  0
    2.6940   -1.2550   -0.1540 C   0  0  0  0  0  0  0  0  0  0  0  0
    1.8270   -2.2200   -0.2210 O   0  0  0  0  0  0  0  0  0  0  0  0
    3.8850   -1.5890    0.5400 C   0  0  0  0  0  0  0  0  0  0  0  0
    4.8960   -0.7920    0.7380 C   0  0  0  0  0  0  0  0  0  0  0  0
    4.9430    0.5590    0.2710 C   0  0  0  0  0  0  0  0  0  0  0  0
    4.1050    1.1920   -0.3630 O   0  0  0  0  0  0  0  0  0  0  0  0
    6.1280    1.2810    0.5810 O   0  0  0  0  0  0  0  0  0  0  0  0
  1  2  2  0
  2  3  2  0
  3  4  1  0
  3  8  1  0
  4  5  2  0
  5  6  1  0
  6  7  2  0
  7  8  1  0
  8  9  1  6
  9 10  1  0
 10 11  2  0
 10 12  1  0
 12 13  1  0
 13 14  1  0
 14 15  2  0
 14 16  1  0
 16 17  2  0
 17 18  1  0
 18 19  2  0
 18 20  1  0
M  END
>  <MODEL>  (82) 
       1

$$$$
../data/cho_sim50/141076116.pdb
     RDKit          3D

 20 20  0  0  1  0  0  0  0  0999 V2000
   -2.5260   -2.4890   -2.0050 O   0  0  0  0  0  0  0  0  0  0  0  0
   -3.0420   -1.7870   -1.1170 C   0  0  0  0  0  0  0  0  0  0  0  0
   -3.4060   -0.7550   -0.3540 C   0  0  0  0  0  0  0  0  0  0  0  0
   -4.8090   -0.4090   -0.3720 C   0  0  0  0  0  0  0  0  0  0  0  0
   -5.3060    0.5900    0.3360 C   0  0  0  0  0  0  0  0  0  0  0  0
   -4.3460    1.3280    1.1420 C   0  0  0  0  0  0  0  0  0  0  0  0
   -3.0670    1.0690    1.2050 C   0  0  0  0  0  0  0  0  0  0  0  0
   -2.4520   -0.0190    0.4500 C   0  0  2  0  0  0  0  0  0  0  0  0
   -1.3680    0.5120   -0.3040 O   0  0  0  0  0  0  0  0  0  0  0  0
   -0.0750    0.1250   -0.0430 C   0  0  0  0  0  0  0  0  0  0  0  0
    0.0860   -0.7020    0.8780 O   0  0  0  0  0  0  0  0  0  0  0  0
    1.0220    0.6680   -0.8130 C   0  0  0  0  0  0  0  0  0  0  0  0
    2.2940    0.2430   -0.5050 O   0  0  0  0  0  0  0  0  0  0  0  0
    2.7840   -1.0230   -0.5420 C   0  0  0  0  0  0  0  0  0  0  0  0
    1.8760   -1.8590   -0.9220 O   0  0  0  0  0  0  0  0  0  0  0  0
    4.0990   -1.4930   -0.2280 C   0  0  0  0  0  0  0  0  0  0  0  0
    5.1120   -0.7810    0.1640 C   0  0  0  0  0  0  0  0  0  0  0  0
    5.0650    0.6360    0.3500 C   0  0  0  0  0  0  0  0  0  0  0  0
    4.1340    1.4240    0.1950 O   0  0  0  0  0  0  0  0  0  0  0  0
    6.2770    1.2460    0.7810 O   0  0  0  0  0  0  0  0  0  0  0  0
  1  2  2  0
  2  3  2  0
  3  4  1  0
  3  8  1  0
  4  5  2  0
  5  6  1  0
  6  7  2  0
  7  8  1  0
  8  9  1  6
  9 10  1  0
 10 11  2  0
 10 12  1  0
 12 13  1  0
 13 14  1  0
 14 15  2  0
 14 16  1  0
 16 17  2  0
 17 18  1  0
 18 19  2  0
 18 20  1  0
M  END
>  <MODEL>  (83) 
       2

$$$$
../data/cho_sim50/141076116.pdb
     RDKit          3D

 20 20  0  0  1  0  0  0  0  0999 V2000
   -2.8060   -1.9010    2.5360 O   0  0  0  0  0  0  0  0  0  0  0  0
   -3.1150   -1.2090    1.5330 C   0  0  0  0  0  0  0  0  0  0  0  0
   -3.3710   -0.6480    0.3890 C   0  0  0  0  0  0  0  0  0  0  0  0
   -4.3040   -1.2800   -0.5100 C   0  0  0  0  0  0  0  0  0  0  0  0
   -4.5990   -0.7430   -1.6950 C   0  0  0  0  0  0  0  0  0  0  0  0
   -3.9430    0.5190   -2.0610 C   0  0  0  0  0  0  0  0  0  0  0  0
   -3.0880    1.1370   -1.2860 C   0  0  0  0  0  0  0  0  0  0  0  0
   -2.7160    0.6120    0.0230 C   0  0  2  0  0  0  0  0  0  0  0  0
   -1.3090    0.5550    0.2040 O   0  0  0  0  0  0  0  0  0  0  0  0
   -0.6500    1.3300    1.1450 C   0  0  0  0  0  0  0  0  0  0  0  0
   -1.3780    2.1100    1.8520 O   0  0  0  0  0  0  0  0  0  0  0  0
    0.8050    1.2830    1.3440 C   0  0  0  0  0  0  0  0  0  0  0  0
    1.3430    0.3270    0.4170 O   0  0  0  0  0  0  0  0  0  0  0  0
    2.7580    0.1360    0.4560 C   0  0  0  0  0  0  0  0  0  0  0  0
    3.3510    0.8330    1.3020 O   0  0  0  0  0  0  0  0  0  0  0  0
    3.2840   -0.8190   -0.4730 C   0  0  0  0  0  0  0  0  0  0  0  0
    4.5370   -1.1580   -0.6200 C   0  0  0  0  0  0  0  0  0  0  0  0
    5.6010   -0.6000    0.1590 C   0  0  0  0  0  0  0  0  0  0  0  0
    5.4580    0.2450    1.0370 O   0  0  0  0  0  0  0  0  0  0  0  0
    6.8990   -1.0870   -0.1390 O   0  0  0  0  0  0  0  0  0  0  0  0
  1  2  2  0
  2  3  2  0
  3  4  1  0
  3  8  1  0
  4  5  2  0
  5  6  1  0
  6  7  2  0
  7  8  1  0
  8  9  1  6
  9 10  1  0
 10 11  2  0
 10 12  1  0
 12 13  1  0
 13 14  1  0
 14 15  2  0
 14 16  1  0
 16 17  2  0
 17 18  1  0
 18 19  2  0
 18 20  1  0
M  END
>  <MODEL>  (84) 
       3

$$$$
../data/cho_sim50/141076116.pdb
     RDKit          3D

 20 20  0  0  1  0  0  0  0  0999 V2000
   -3.2470    1.6720    1.6300 O   0  0  0  0  0  0  0  0  0  0  0  0
   -3.0700    1.0570    0.5480 C   0  0  0  0  0  0  0  0  0  0  0  0
   -2.7610    0.3720   -0.5100 C   0  0  0  0  0  0  0  0  0  0  0  0
   -3.2170    0.8820   -1.7990 C   0  0  0  0  0  0  0  0  0  0  0  0
   -2.9540    0.2580   -2.9370 C   0  0  0  0  0  0  0  0  0  0  0  0
   -2.1920   -0.9670   -2.8960 C   0  0  0  0  0  0  0  0  0  0  0  0
   -1.7580   -1.4720   -1.7780 C   0  0  0  0  0  0  0  0  0  0  0  0
   -1.9750   -0.8840   -0.4290 C   0  0  1  0  0  0  0  0  0  0  0  0
   -0.7950   -0.7420    0.3070 O   0  0  0  0  0  0  0  0  0  0  0  0
   -0.4940   -1.3970    1.4740 C   0  0  0  0  0  0  0  0  0  0  0  0
   -1.3480   -2.1990    1.9330 O   0  0  0  0  0  0  0  0  0  0  0  0
    0.7580   -1.2370    2.2410 C   0  0  0  0  0  0  0  0  0  0  0  0
    1.6450   -0.3330    1.6640 O   0  0  0  0  0  0  0  0  0  0  0  0
    2.8580   -0.0700    2.2530 C   0  0  0  0  0  0  0  0  0  0  0  0
    3.0710   -0.7320    3.3610 O   0  0  0  0  0  0  0  0  0  0  0  0
    3.9100    0.8030    1.8520 C   0  0  0  0  0  0  0  0  0  0  0  0
    4.0050    1.5850    0.8190 C   0  0  0  0  0  0  0  0  0  0  0  0
    2.9630    1.6870   -0.1530 C   0  0  0  0  0  0  0  0  0  0  0  0
    3.1640    2.4930   -1.1360 O   0  0  0  0  0  0  0  0  0  0  0  0
    1.7890    1.0220   -0.1430 O   0  0  0  0  0  0  0  0  0  0  0  0
  1  2  2  0
  2  3  2  0
  3  4  1  0
  3  8  1  0
  4  5  2  0
  5  6  1  0
  6  7  2  0
  7  8  1  0
  8  9  1  6
  9 10  1  0
 10 11  2  0
 10 12  1  0
 12 13  1  0
 13 14  1  0
 14 15  2  0
 14 16  1  0
 16 17  2  0
 17 18  1  0
 18 19  2  0
 18 20  1  0
M  END
>  <MODEL>  (85) 
       4

$$$$
../data/cho_sim50/141076156.pdb
     RDKit          3D

 20 20  0  0  1  0  0  0  0  0999 V2000
   -2.5860   -2.2550   -2.6420 O   0  0  0  0  0  0  0  0  0  0  0  0
   -3.0090   -1.8420   -1.5320 C   0  0  0  0  0  0  0  0  0  0  0  0
   -3.4620   -0.9810   -0.6230 C   0  0  0  0  0  0  0  0  0  0  0  0
   -4.9020   -0.8250   -0.4960 C   0  0  0  0  0  0  0  0  0  0  0  0
   -5.3800    0.0210    0.3970 C   0  0  0  0  0  0  0  0  0  0  0  0
   -4.4770    0.7850    1.2390 C   0  0  0  0  0  0  0  0  0  0  0  0
   -3.1660    0.6850    1.1670 C   0  0  0  0  0  0  0  0  0  0  0  0
   -2.5400   -0.2160    0.2210 C   0  0  2  0  0  0  0  0  0  0  0  0
   -1.5920    0.4010   -0.6250 O   0  0  0  0  0  0  0  0  0  0  0  0
   -0.2550    0.0750   -0.6740 C   0  0  0  0  0  0  0  0  0  0  0  0
    0.1570   -0.8270    0.0780 O   0  0  0  0  0  0  0  0  0  0  0  0
    0.6100    0.8220   -1.6220 C   0  0  0  0  0  0  0  0  0  0  0  0
    1.9510    0.3890   -1.5690 O   0  0  0  0  0  0  0  0  0  0  0  0
    2.6480    0.4850   -0.3870 C   0  0  0  0  0  0  0  0  0  0  0  0
    2.0680    0.9600    0.6220 O   0  0  0  0  0  0  0  0  0  0  0  0
    4.0550    0.0460   -0.2750 C   0  0  0  0  0  0  0  0  0  0  0  0
    4.6850    0.1580    0.8830 C   0  0  0  0  0  0  0  0  0  0  0  0
    6.0740   -0.2670    1.0230 C   0  0  0  0  0  0  0  0  0  0  0  0
    6.7160   -0.7440    0.0780 O   0  0  0  0  0  0  0  0  0  0  0  0
    6.6990   -0.1320    2.2570 O   0  0  0  0  0  0  0  0  0  0  0  0
  1  2  2  0
  2  3  2  0
  3  4  1  0
  3  8  1  0
  4  5  2  0
  5  6  1  0
  6  7  2  0
  7  8  1  0
  8  9  1  6
  9 10  1  0
 10 11  2  0
 10 12  1  0
 12 13  1  0
 13 14  1  0
 14 15  2  0
 14 16  1  0
 16 17  2  0
 17 18  1  0
 18 19  2  0
 18 20  1  0
M  END
>  <MODEL>  (86) 
       1

$$$$
../data/cho_sim50/141076156.pdb
     RDKit          3D

 20 20  0  0  1  0  0  0  0  0999 V2000
   -1.9790    3.1540   -1.8070 O   0  0  0  0  0  0  0  0  0  0  0  0
   -2.5400    2.1950   -1.2310 C   0  0  0  0  0  0  0  0  0  0  0  0
   -2.7150    1.1980   -0.3790 C   0  0  0  0  0  0  0  0  0  0  0  0
   -3.2610    1.5050    0.9340 C   0  0  0  0  0  0  0  0  0  0  0  0
   -3.4680    0.5750    1.8440 C   0  0  0  0  0  0  0  0  0  0  0  0
   -3.1440   -0.8050    1.5360 C   0  0  0  0  0  0  0  0  0  0  0  0
   -2.6490   -1.1160    0.3580 C   0  0  0  0  0  0  0  0  0  0  0  0
   -2.3720   -0.1760   -0.7400 C   0  0  2  0  0  0  0  0  0  0  0  0
   -0.9760   -0.3110   -1.0540 O   0  0  0  0  0  0  0  0  0  0  0  0
   -0.5440   -0.7380   -2.2970 C   0  0  0  0  0  0  0  0  0  0  0  0
   -1.4170   -1.0100   -3.1600 O   0  0  0  0  0  0  0  0  0  0  0  0
    0.8830   -0.8930   -2.6700 C   0  0  0  0  0  0  0  0  0  0  0  0
    1.7600   -0.5630   -1.6360 O   0  0  0  0  0  0  0  0  0  0  0  0
    1.8090   -1.1700   -0.4070 C   0  0  0  0  0  0  0  0  0  0  0  0
    1.0040   -2.1060   -0.1690 O   0  0  0  0  0  0  0  0  0  0  0  0
    2.7580   -0.7760    0.6410 C   0  0  0  0  0  0  0  0  0  0  0  0
    3.6250    0.2020    0.4410 C   0  0  0  0  0  0  0  0  0  0  0  0
    4.5840    0.6270    1.4500 C   0  0  0  0  0  0  0  0  0  0  0  0
    4.5990    0.0490    2.5590 O   0  0  0  0  0  0  0  0  0  0  0  0
    5.4780    1.6430    1.2310 O   0  0  0  0  0  0  0  0  0  0  0  0
  1  2  2  0
  2  3  2  0
  3  4  1  0
  3  8  1  0
  4  5  2  0
  5  6  1  0
  6  7  2  0
  7  8  1  0
  8  9  1  1
  9 10  1  0
 10 11  2  0
 10 12  1  0
 12 13  1  0
 13 14  1  0
 14 15  2  0
 14 16  1  0
 16 17  2  0
 17 18  1  0
 18 19  2  0
 18 20  1  0
M  END
>  <MODEL>  (87) 
       2

$$$$
../data/cho_sim50/141076156.pdb
     RDKit          3D

 20 20  0  0  1  0  0  0  0  0999 V2000
   -2.4500   -1.7340    2.9000 O   0  0  0  0  0  0  0  0  0  0  0  0
   -2.8190   -0.8570    2.0830 C   0  0  0  0  0  0  0  0  0  0  0  0
   -3.4490   -0.3750    1.0470 C   0  0  0  0  0  0  0  0  0  0  0  0
   -4.8770   -0.0830    1.0680 C   0  0  0  0  0  0  0  0  0  0  0  0
   -5.4740    0.4030    0.0010 C   0  0  0  0  0  0  0  0  0  0  0  0
   -4.6990    0.6460   -1.1980 C   0  0  0  0  0  0  0  0  0  0  0  0
   -3.4190    0.4110   -1.2940 C   0  0  0  0  0  0  0  0  0  0  0  0
   -2.6490   -0.1310   -0.1680 C   0  0  1  0  0  0  0  0  0  0  0  0
   -1.5650    0.6950    0.2080 O   0  0  0  0  0  0  0  0  0  0  0  0
   -0.2410    0.2810    0.1820 C   0  0  0  0  0  0  0  0  0  0  0  0
    0.0000   -0.8830   -0.1930 O   0  0  0  0  0  0  0  0  0  0  0  0
    0.7860    1.2580    0.6060 C   0  0  0  0  0  0  0  0  0  0  0  0
    2.0880    0.7590    0.5490 O   0  0  0  0  0  0  0  0  0  0  0  0
    2.7190    0.2960   -0.5730 C   0  0  0  0  0  0  0  0  0  0  0  0
    2.1100    0.3050   -1.6560 O   0  0  0  0  0  0  0  0  0  0  0  0
    4.0970   -0.2130   -0.5370 C   0  0  0  0  0  0  0  0  0  0  0  0
    4.7960   -0.2470    0.5910 C   0  0  0  0  0  0  0  0  0  0  0  0
    6.1610   -0.7460    0.6500 C   0  0  0  0  0  0  0  0  0  0  0  0
    6.7440   -0.7400    1.7610 O   0  0  0  0  0  0  0  0  0  0  0  0
    6.8350   -1.2210   -0.4490 O   0  0  0  0  0  0  0  0  0  0  0  0
  1  2  2  0
  2  3  2  0
  3  4  1  0
  3  8  1  0
  4  5  2  0
  5  6  1  0
  6  7  2  0
  7  8  1  0
  8  9  1  1
  9 10  1  0
 10 11  2  0
 10 12  1  0
 12 13  1  0
 13 14  1  0
 14 15  2  0
 14 16  1  0
 16 17  2  0
 17 18  1  0
 18 19  2  0
 18 20  1  0
M  END
>  <MODEL>  (88) 
       3

$$$$
../data/cho_sim50/142110891.pdb
     RDKit          3D

 18 18  0  0  1  0  0  0  0  0999 V2000
   -2.2810    1.9630   -1.7620 O   0  0  0  0  0  0  0  0  0  0  0  0
   -2.7920    1.1550   -0.9580 C   0  0  0  0  0  0  0  0  0  0  0  0
   -4.1590    1.1740   -0.7820 O   0  0  0  0  0  0  0  0  0  0  0  0
   -1.9070    0.2400   -0.2540 C   0  0  0  0  0  0  0  0  0  0  0  0
   -0.5990    0.2490   -0.4470 C   0  0  0  0  0  0  0  0  0  0  0  0
    0.3690   -0.6250    0.2090 C   0  0  1  0  0  0  0  0  0  0  0  0
    1.4070    0.0880    0.8630 O   0  0  0  0  0  0  0  0  0  0  0  0
    2.2690    0.9440    0.2030 C   0  0  0  0  0  0  0  0  0  0  0  0
    3.4680    0.4420   -0.4780 C   0  0  0  0  0  0  0  0  0  0  0  0
    4.2360    1.2420   -1.0710 O   0  0  0  0  0  0  0  0  0  0  0  0
    3.7970   -0.9020   -0.4970 O   0  0  0  0  0  0  0  0  0  0  0  0
    2.0060    2.2230    0.1910 C   0  0  0  0  0  0  0  0  0  0  0  0
    0.9130    2.7260    0.8050 F   0  0  0  0  0  0  0  0  0  0  0  0
    2.8390    3.0690   -0.4500 F   0  0  0  0  0  0  0  0  0  0  0  0
   -0.2010   -1.5980    1.1710 C   0  0  2  0  0  0  0  0  0  0  0  0
    0.1180   -2.9320    0.8240 O   0  0  0  0  0  0  0  0  0  0  0  0
   -1.6590   -1.5320    1.3170 C   0  0  0  0  0  0  0  0  0  0  0  0
   -2.4720   -0.7250    0.7000 C   0  0  0  0  0  0  0  0  0  0  0  0
  1  2  2  0
  2  3  1  0
  2  4  1  0
  4  5  2  0
  4 18  1  0
  5  6  1  0
  6  7  1  1
  6 15  1  0
  7  8  1  0
  8  9  1  0
  8 12  2  0
  9 10  2  0
  9 11  1  0
 12 13  1  0
 12 14  1  0
 15 16  1  6
 15 17  1  0
 17 18  2  0
M  END
>  <MODEL>  (89) 
       1

$$$$
../data/cho_sim50/142110891.pdb
     RDKit          3D

 18 18  0  0  1  0  0  0  0  0999 V2000
   -3.4050    1.9680    0.7170 O   0  0  0  0  0  0  0  0  0  0  0  0
   -2.1970    1.8800    0.4250 C   0  0  0  0  0  0  0  0  0  0  0  0
   -1.3980    2.9890    0.4330 O   0  0  0  0  0  0  0  0  0  0  0  0
   -1.6670    0.5690    0.0770 C   0  0  0  0  0  0  0  0  0  0  0  0
   -0.4090    0.4430   -0.2330 C   0  0  0  0  0  0  0  0  0  0  0  0
    0.2040   -0.8260   -0.5920 C   0  0  1  0  0  0  0  0  0  0  0  0
    1.3520   -0.9630    0.2720 O   0  0  0  0  0  0  0  0  0  0  0  0
    2.3020    0.0510    0.1440 C   0  0  0  0  0  0  0  0  0  0  0  0
    2.4280    1.0950    1.1240 C   0  0  0  0  0  0  0  0  0  0  0  0
    3.2970    1.9950    0.9780 O   0  0  0  0  0  0  0  0  0  0  0  0
    1.6360    1.1910    2.2630 O   0  0  0  0  0  0  0  0  0  0  0  0
    3.0840    0.0170   -0.9130 C   0  0  0  0  0  0  0  0  0  0  0  0
    4.0120    0.9900   -1.0560 F   0  0  0  0  0  0  0  0  0  0  0  0
    2.9990   -0.9390   -1.8500 F   0  0  0  0  0  0  0  0  0  0  0  0
   -0.6510   -1.9970   -0.5990 C   0  0  2  0  0  0  0  0  0  0  0  0
   -0.6610   -2.6720   -1.8510 O   0  0  0  0  0  0  0  0  0  0  0  0
   -2.0390   -1.7830   -0.2440 C   0  0  0  0  0  0  0  0  0  0  0  0
   -2.5240   -0.6180    0.0680 C   0  0  0  0  0  0  0  0  0  0  0  0
  1  2  2  0
  2  3  1  0
  2  4  1  0
  4  5  2  0
  4 18  1  0
  5  6  1  0
  6  7  1  1
  6 15  1  0
  7  8  1  0
  8  9  1  0
  8 12  2  0
  9 10  2  0
  9 11  1  0
 12 13  1  0
 12 14  1  0
 15 16  1  6
 15 17  1  0
 17 18  2  0
M  END
>  <MODEL>  (90) 
       2

$$$$
../data/cho_sim50/142110891.pdb
     RDKit          3D

 18 18  0  0  1  0  0  0  0  0999 V2000
   -4.6700    0.1430    0.1630 O   0  0  0  0  0  0  0  0  0  0  0  0
   -3.6610    0.6830    0.6340 C   0  0  0  0  0  0  0  0  0  0  0  0
   -3.8130    1.5850    1.6760 O   0  0  0  0  0  0  0  0  0  0  0  0
   -2.3150    0.3750    0.1000 C   0  0  0  0  0  0  0  0  0  0  0  0
   -1.2360    0.9380    0.5870 C   0  0  0  0  0  0  0  0  0  0  0  0
    0.1060    0.6630    0.0920 C   0  0  1  0  0  0  0  0  0  0  0  0
    1.0160    0.3950    1.1770 O   0  0  0  0  0  0  0  0  0  0  0  0
    2.3170    0.1200    0.8220 C   0  0  0  0  0  0  0  0  0  0  0  0
    2.8840   -1.1990    1.0150 C   0  0  0  0  0  0  0  0  0  0  0  0
    4.0770   -1.4820    0.6970 O   0  0  0  0  0  0  0  0  0  0  0  0
    2.1510   -2.2550    1.5680 O   0  0  0  0  0  0  0  0  0  0  0  0
    3.0560    1.0680    0.3010 C   0  0  0  0  0  0  0  0  0  0  0  0
    2.6080    2.3310    0.0850 F   0  0  0  0  0  0  0  0  0  0  0  0
    4.3450    0.8090   -0.0550 F   0  0  0  0  0  0  0  0  0  0  0  0
    0.2290   -0.2850   -0.9970 C   0  0  2  0  0  0  0  0  0  0  0  0
    1.0490    0.1810   -2.0580 O   0  0  0  0  0  0  0  0  0  0  0  0
   -1.0000   -0.8690   -1.4870 C   0  0  0  0  0  0  0  0  0  0  0  0
   -2.1660   -0.5730   -0.9910 C   0  0  0  0  0  0  0  0  0  0  0  0
  1  2  2  0
  2  3  1  0
  2  4  1  0
  4  5  2  0
  4 18  1  0
  5  6  1  0
  6  7  1  1
  6 15  1  0
  7  8  1  0
  8  9  1  0
  8 12  2  0
  9 10  2  0
  9 11  1  0
 12 13  1  0
 12 14  1  0
 15 16  1  6
 15 17  1  0
 17 18  2  0
M  END
>  <MODEL>  (91) 
       3

$$$$
../data/cho_sim50/144590668.pdb
     RDKit          3D

 13 13  0  0  1  0  0  0  0  0999 V2000
    4.6400   -0.2670   -0.6050 C   0  0  0  0  0  0  0  0  0  0  0  0
    3.2500   -0.4440   -0.8020 O   0  0  0  0  0  0  0  0  0  0  0  0
    2.2750    0.1670   -0.0610 C   0  0  0  0  0  0  0  0  0  0  0  0
    2.5930    0.9370    0.8590 O   0  0  0  0  0  0  0  0  0  0  0  0
    0.8250   -0.0470   -0.3030 C   0  0  0  0  0  0  0  0  0  0  0  0
   -0.0340    0.5720    0.4480 C   0  0  0  0  0  0  0  0  0  0  0  0
   -1.4810    0.4400    0.3040 C   0  0  2  0  0  0  0  0  0  0  0  0
   -2.0840    0.0390    1.5200 O   0  0  0  0  0  0  0  0  0  0  0  0
   -2.9800    1.0320    1.9740 C   0  0  0  0  0  0  0  0  0  0  0  0
   -1.8990   -0.4750   -0.7770 C   0  0  2  0  0  0  0  0  0  0  0  0
   -2.6910   -1.5320   -0.2460 O   0  0  0  0  0  0  0  0  0  0  0  0
   -0.8510   -1.1200   -1.5620 C   0  0  0  0  0  0  0  0  0  0  0  0
    0.4350   -0.9630   -1.3920 C   0  0  0  0  0  0  0  0  0  0  0  0
  1  2  1  0
  2  3  1  0
  3  4  2  0
  3  5  1  0
  5  6  2  0
  5 13  1  0
  6  7  1  0
  7  8  1  1
  7 10  1  0
  8  9  1  0
 10 11  1  1
 10 12  1  0
 12 13  2  0
M  END
$$$$
../data/cho_sim50/146226013.pdb
     RDKit          3D

 16 16  0  0  1  0  0  0  0  0999 V2000
   -4.5100    1.4110   -0.5300 C   0  0  0  0  0  0  0  0  0  0  0  0
   -3.9250    0.0760   -0.0820 C   0  0  2  0  0  0  0  0  0  0  0  0
   -2.5810    0.0660   -0.5230 O   0  0  0  0  0  0  0  0  0  0  0  0
   -1.5530    0.0180    0.4000 C   0  0  0  0  0  0  0  0  0  0  0  0
   -1.8410   -0.0160    1.6160 O   0  0  0  0  0  0  0  0  0  0  0  0
   -0.1440    0.0070   -0.0470 C   0  0  0  0  0  0  0  0  0  0  0  0
    0.8460   -0.0390    0.8110 C   0  0  0  0  0  0  0  0  0  0  0  0
    2.2600   -0.0520    0.4400 C   0  0  0  0  0  0  0  0  0  0  0  0
    3.1670   -0.1000    1.3980 C   0  0  0  0  0  0  0  0  0  0  0  0
    4.5930   -0.1160    1.1120 C   0  0  0  0  0  0  0  0  0  0  0  0
    5.0210   -0.0780   -0.2980 C   0  0  0  0  0  0  0  0  0  0  0  0
    3.9660   -0.0260   -1.3090 C   0  0  0  0  0  0  0  0  0  0  0  0
    2.6960   -0.0150   -0.9390 C   0  0  0  0  0  0  0  0  0  0  0  0
   -4.6540   -1.0550   -0.6680 C   0  0  0  0  0  0  0  0  0  0  0  0
   -4.0800   -1.8440   -1.4270 O   0  0  0  0  0  0  0  0  0  0  0  0
   -6.0040   -1.2810   -0.3960 O   0  0  0  0  0  0  0  0  0  0  0  0
  2  1  1  6
  2  3  1  0
  2 14  1  0
  3  4  1  0
  4  5  2  0
  4  6  1  0
  6  7  2  0
  7  8  1  0
  8  9  2  0
  8 13  1  0
  9 10  1  0
 10 11  1  0
 11 12  1  0
 12 13  2  0
 14 15  2  0
 14 16  1  0
M  END
>  <MODEL>  (93) 
       1

$$$$
../data/cho_sim50/146226013.pdb
     RDKit          3D

 16 16  0  0  1  0  0  0  0  0999 V2000
   -4.5890   -1.6330    0.0770 C   0  0  0  0  0  0  0  0  0  0  0  0
   -3.9800   -0.2540   -0.0260 C   0  0  1  0  0  0  0  0  0  0  0  0
   -2.6150   -0.3590   -0.3770 O   0  0  0  0  0  0  0  0  0  0  0  0
   -1.5920    0.1320    0.3720 C   0  0  0  0  0  0  0  0  0  0  0  0
   -1.8320    0.7240    1.4510 O   0  0  0  0  0  0  0  0  0  0  0  0
   -0.2020   -0.0360   -0.0910 C   0  0  0  0  0  0  0  0  0  0  0  0
    0.7830    0.4440    0.6420 C   0  0  0  0  0  0  0  0  0  0  0  0
    2.1590    0.2820    0.1900 C   0  0  0  0  0  0  0  0  0  0  0  0
    3.1350    0.7690    0.9380 C   0  0  0  0  0  0  0  0  0  0  0  0
    4.5440    0.6690    0.5920 C   0  0  0  0  0  0  0  0  0  0  0  0
    4.8920   -0.0180   -0.6670 C   0  0  0  0  0  0  0  0  0  0  0  0
    3.7610   -0.5300   -1.4390 C   0  0  0  0  0  0  0  0  0  0  0  0
    2.5030   -0.3910   -1.0430 C   0  0  0  0  0  0  0  0  0  0  0  0
   -4.6520    0.5490   -1.0920 C   0  0  0  0  0  0  0  0  0  0  0  0
   -5.8790    0.7510   -0.9530 O   0  0  0  0  0  0  0  0  0  0  0  0
   -3.9730    1.0500   -2.1810 O   0  0  0  0  0  0  0  0  0  0  0  0
  2  1  1  6
  2  3  1  0
  2 14  1  0
  3  4  1  0
  4  5  2  0
  4  6  1  0
  6  7  2  0
  7  8  1  0
  8  9  2  0
  8 13  1  0
  9 10  1  0
 10 11  1  0
 11 12  1  0
 12 13  2  0
 14 15  2  0
 14 16  1  0
M  END
>  <MODEL>  (94) 
       2

$$$$
../data/cho_sim50/146226015.pdb
     RDKit          3D

 16 16  0  0  1  0  0  0  0  0999 V2000
    3.9260   -1.9400   -0.7860 C   0  0  0  0  0  0  0  0  0  0  0  0
    3.5950   -0.4640   -0.8820 C   0  0  1  0  0  0  0  0  0  0  0  0
    2.2420   -0.3120   -0.5260 O   0  0  0  0  0  0  0  0  0  0  0  0
    1.3480    0.1920   -1.4520 C   0  0  0  0  0  0  0  0  0  0  0  0
    1.7870    0.4970   -2.5840 O   0  0  0  0  0  0  0  0  0  0  0  0
   -0.0640    0.3870   -1.1860 C   0  0  0  0  0  0  0  0  0  0  0  0
   -0.5480    0.0790   -0.0180 C   0  0  0  0  0  0  0  0  0  0  0  0
   -1.9660    0.2400    0.3500 C   0  0  0  0  0  0  0  0  0  0  0  0
   -2.3900   -0.0930    1.5540 C   0  0  0  0  0  0  0  0  0  0  0  0
   -3.7810    0.0260    2.0250 C   0  0  0  0  0  0  0  0  0  0  0  0
   -4.7580    0.5680    1.0580 C   0  0  0  0  0  0  0  0  0  0  0  0
   -4.2230    0.9190   -0.2660 C   0  0  0  0  0  0  0  0  0  0  0  0
   -2.9570    0.7610   -0.5600 C   0  0  0  0  0  0  0  0  0  0  0  0
    4.4850    0.3520   -0.0170 C   0  0  0  0  0  0  0  0  0  0  0  0
    3.9510    1.0410    0.8780 O   0  0  0  0  0  0  0  0  0  0  0  0
    5.8560    0.3740   -0.1670 O   0  0  0  0  0  0  0  0  0  0  0  0
  2  1  1  1
  2  3  1  0
  2 14  1  0
  3  4  1  0
  4  5  2  0
  4  6  1  0
  6  7  2  0
  7  8  1  0
  8  9  2  0
  8 13  1  0
  9 10  1  0
 10 11  1  0
 11 12  1  0
 12 13  2  0
 14 15  2  0
 14 16  1  0
M  END
>  <MODEL>  (95) 
       1

$$$$
../data/cho_sim50/146226015.pdb
     RDKit          3D

 16 16  0  0  1  0  0  0  0  0999 V2000
    4.3750    0.9280   -0.8050 C   0  0  0  0  0  0  0  0  0  0  0  0
    3.7440   -0.2710   -0.1260 C   0  0  2  0  0  0  0  0  0  0  0  0
    2.3520   -0.2040   -0.1210 O   0  0  0  0  0  0  0  0  0  0  0  0
    1.5570   -1.1300   -0.8060 C   0  0  0  0  0  0  0  0  0  0  0  0
    2.1790   -2.0280   -1.4290 O   0  0  0  0  0  0  0  0  0  0  0  0
    0.1060   -1.0430   -0.7880 C   0  0  0  0  0  0  0  0  0  0  0  0
   -0.4990   -0.0920   -0.1260 C   0  0  0  0  0  0  0  0  0  0  0  0
   -1.9540    0.0740   -0.0510 C   0  0  0  0  0  0  0  0  0  0  0  0
   -2.4940    1.0660    0.6410 C   0  0  0  0  0  0  0  0  0  0  0  0
   -3.9230    1.3110    0.7730 C   0  0  0  0  0  0  0  0  0  0  0  0
   -4.8380    0.3780    0.0780 C   0  0  0  0  0  0  0  0  0  0  0  0
   -4.1740   -0.6940   -0.6670 C   0  0  0  0  0  0  0  0  0  0  0  0
   -2.8640   -0.8430   -0.7340 C   0  0  0  0  0  0  0  0  0  0  0  0
    4.3390   -0.4670    1.1970 C   0  0  0  0  0  0  0  0  0  0  0  0
    5.5870   -0.5420    1.3190 O   0  0  0  0  0  0  0  0  0  0  0  0
    3.5560   -0.5710    2.3200 O   0  0  0  0  0  0  0  0  0  0  0  0
  2  1  1  1
  2  3  1  0
  2 14  1  0
  3  4  1  0
  4  5  2  0
  4  6  1  0
  6  7  2  0
  7  8  1  0
  8  9  2  0
  8 13  1  0
  9 10  1  0
 10 11  1  0
 11 12  1  0
 12 13  2  0
 14 15  2  0
 14 16  1  0
M  END
>  <MODEL>  (96) 
       2

$$$$
../data/cho_sim50/150972446.pdb
     RDKit          3D

 12 12  0  0  1  0  0  0  0  0999 V2000
    1.7580    2.3560   -0.8520 O   0  0  0  0  0  0  0  0  0  0  0  0
    2.0230    1.1400   -0.6660 C   0  0  0  0  0  0  0  0  0  0  0  0
    3.3820    0.8180   -0.5810 O   0  0  0  0  0  0  0  0  0  0  0  0
    0.9820    0.1260   -0.5450 C   0  0  0  0  0  0  0  0  0  0  0  0
   -0.2730    0.5180   -0.6370 C   0  0  0  0  0  0  0  0  0  0  0  0
   -1.4380   -0.4090   -0.5320 C   0  0  2  0  0  0  0  0  0  0  0  0
   -2.3010    0.1220    0.5570 C   0  0  0  0  0  0  0  0  0  0  0  0
   -2.6310   -0.5930    1.5310 O   0  0  0  0  0  0  0  0  0  0  0  0
   -2.7570    1.4210    0.5170 O   0  0  0  0  0  0  0  0  0  0  0  0
   -1.0710   -1.7380   -0.3270 O   0  0  0  0  0  0  0  0  0  0  0  0
    0.2520   -2.1410   -0.2310 C   0  0  0  0  0  0  0  0  0  0  0  0
    1.2520   -1.2770   -0.3310 C   0  0  0  0  0  0  0  0  0  0  0  0
  1  2  2  0
  2  3  1  0
  2  4  1  0
  4  5  2  0
  4 12  1  0
  5  6  1  0
  6  7  1  1
  6 10  1  0
  7  8  2  0
  7  9  1  0
 10 11  1  0
 11 12  2  0
M  END
$$$$
../data/cho_sim50/152762477.pdb
     RDKit          3D

 16 16  0  0  1  0  0  0  0  0999 V2000
   -2.1690    1.6770    1.2230 C   0  0  0  0  0  0  0  0  0  0  0  0
   -2.1830    0.8120    0.2290 C   0  0  0  0  0  0  0  0  0  0  0  0
   -1.1260    0.8020   -0.6670 O   0  0  0  0  0  0  0  0  0  0  0  0
    0.2250    0.6900   -0.1930 C   0  0  1  0  0  0  0  0  0  0  0  0
    0.3390   -0.5670    0.5330 C   0  0  0  0  0  0  0  0  0  0  0  0
    1.2180   -1.5270    0.3080 C   0  0  0  0  0  0  0  0  0  0  0  0
    1.2400   -2.7460    1.1010 C   0  0  0  0  0  0  0  0  0  0  0  0
    2.1050   -3.6170    0.8300 O   0  0  0  0  0  0  0  0  0  0  0  0
    0.3300   -2.9590    2.1400 O   0  0  0  0  0  0  0  0  0  0  0  0
    2.1600   -1.3100   -0.7680 C   0  0  0  0  0  0  0  0  0  0  0  0
    2.1420   -0.2160   -1.4830 C   0  0  0  0  0  0  0  0  0  0  0  0
    1.1960    0.8760   -1.2810 C   0  0  2  0  0  0  0  0  0  0  0  0
    1.9530    2.2150   -1.1370 C   0  0  0  0  0  0  0  0  0  0  0  0
   -3.3040   -0.1040    0.1020 C   0  0  0  0  0  0  0  0  0  0  0  0
   -3.3650   -0.9580   -0.8410 O   0  0  0  0  0  0  0  0  0  0  0  0
   -4.3370   -0.0560    1.0190 O   0  0  0  0  0  0  0  0  0  0  0  0
  1  2  2  0
  2  3  1  0
  2 14  1  0
  4  3  1  6
  4  5  1  0
  4 12  1  0
  5  6  2  0
  6  7  1  0
  6 10  1  0
  7  8  2  0
  7  9  1  0
 10 11  2  0
 11 12  1  0
 12 13  1  1
 14 15  2  0
 14 16  1  0
M  END
>  <MODEL>  (98) 
       1

$$$$
../data/cho_sim50/152762477.pdb
     RDKit          3D

 16 16  0  0  1  0  0  0  0  0999 V2000
    0.7670   -0.9340    1.8380 C   0  0  0  0  0  0  0  0  0  0  0  0
    1.6730   -0.3370    1.0990 C   0  0  0  0  0  0  0  0  0  0  0  0
    1.4260    0.8040    0.4360 O   0  0  0  0  0  0  0  0  0  0  0  0
    0.2600    1.1870   -0.2900 C   0  0  2  0  0  0  0  0  0  0  0  0
   -0.9270    1.2160    0.5390 C   0  0  0  0  0  0  0  0  0  0  0  0
   -2.0680    0.7110    0.1330 C   0  0  0  0  0  0  0  0  0  0  0  0
   -3.2460    0.7450    0.9700 C   0  0  0  0  0  0  0  0  0  0  0  0
   -4.3570    0.2720    0.6180 O   0  0  0  0  0  0  0  0  0  0  0  0
   -3.1430    1.3290    2.2220 O   0  0  0  0  0  0  0  0  0  0  0  0
   -2.2110    0.0920   -1.1800 C   0  0  0  0  0  0  0  0  0  0  0  0
   -1.1580    0.0500   -1.9640 C   0  0  0  0  0  0  0  0  0  0  0  0
    0.1580    0.5840   -1.6110 C   0  0  2  0  0  0  0  0  0  0  0  0
    1.1330   -0.5960   -1.7730 C   0  0  0  0  0  0  0  0  0  0  0  0
    2.9910   -0.9410    1.0020 C   0  0  0  0  0  0  0  0  0  0  0  0
    3.2700   -2.0200    1.6100 O   0  0  0  0  0  0  0  0  0  0  0  0
    4.0060   -0.3820    0.2490 O   0  0  0  0  0  0  0  0  0  0  0  0
  1  2  2  0
  2  3  1  0
  2 14  1  0
  4  3  1  1
  4  5  1  0
  4 12  1  0
  5  6  2  0
  6  7  1  0
  6 10  1  0
  7  8  2  0
  7  9  1  0
 10 11  2  0
 11 12  1  0
 12 13  1  1
 14 15  2  0
 14 16  1  0
M  END
>  <MODEL>  (99) 
       2

$$$$
../data/cho_sim50/152762477.pdb
     RDKit          3D

 16 16  0  0  1  0  0  0  0  0999 V2000
    2.6010    0.5700   -2.3790 C   0  0  0  0  0  0  0  0  0  0  0  0
    2.1970    0.3360   -1.1410 C   0  0  0  0  0  0  0  0  0  0  0  0
    1.1930   -0.5910   -0.9660 O   0  0  0  0  0  0  0  0  0  0  0  0
    0.2820   -0.6110    0.1430 C   0  0  1  0  0  0  0  0  0  0  0  0
   -0.4320    0.6520    0.1390 C   0  0  0  0  0  0  0  0  0  0  0  0
   -1.7380    0.7710    0.1140 C   0  0  0  0  0  0  0  0  0  0  0  0
   -2.3760    2.0780    0.1130 C   0  0  0  0  0  0  0  0  0  0  0  0
   -3.6120    2.1810    0.0890 O   0  0  0  0  0  0  0  0  0  0  0  0
   -1.5990    3.2200    0.1380 O   0  0  0  0  0  0  0  0  0  0  0  0
   -2.5880   -0.4050    0.0870 C   0  0  0  0  0  0  0  0  0  0  0  0
   -2.0150   -1.5730    0.0870 C   0  0  0  0  0  0  0  0  0  0  0  0
   -0.5790   -1.8130    0.1130 C   0  0  2  0  0  0  0  0  0  0  0  0
   -0.2370   -2.7750    1.2670 C   0  0  0  0  0  0  0  0  0  0  0  0
    2.8410    1.0720   -0.0700 C   0  0  0  0  0  0  0  0  0  0  0  0
    3.7460    1.8910   -0.3580 O   0  0  0  0  0  0  0  0  0  0  0  0
    2.5410    0.9490    1.2750 O   0  0  0  0  0  0  0  0  0  0  0  0
  1  2  2  0
  2  3  1  0
  2 14  1  0
  4  3  1  6
  4  5  1  0
  4 12  1  0
  5  6  2  0
  6  7  1  0
  6 10  1  0
  7  8  2  0
  7  9  1  0
 10 11  2  0
 11 12  1  0
 12 13  1  1
 14 15  2  0
 14 16  1  0
M  END
>  <MODEL>  (100) 
       3

$$$$
../data/cho_sim50/152762478.pdb
     RDKit          3D

 15 15  0  0  1  0  0  0  0  0999 V2000
    2.1430    1.6380   -0.4530 C   0  0  0  0  0  0  0  0  0  0  0  0
    2.1820    0.5180    0.2760 C   0  0  0  0  0  0  0  0  0  0  0  0
    1.4030   -0.5710   -0.0400 O   0  0  0  0  0  0  0  0  0  0  0  0
    0.2160   -0.4920   -0.8280 C   0  0  2  0  0  0  0  0  0  0  0  0
   -0.6950    0.4010   -0.1150 C   0  0  0  0  0  0  0  0  0  0  0  0
   -1.9060    0.0690    0.2600 C   0  0  0  0  0  0  0  0  0  0  0  0
   -2.7490    1.0410    0.9750 C   0  0  0  0  0  0  0  0  0  0  0  0
   -3.9010    0.7040    1.3230 O   0  0  0  0  0  0  0  0  0  0  0  0
   -2.2670    2.2960    1.2500 O   0  0  0  0  0  0  0  0  0  0  0  0
   -2.4360   -1.2810   -0.0310 C   0  0  0  0  0  0  0  0  0  0  0  0
   -1.6660   -2.1370   -0.6720 C   0  0  0  0  0  0  0  0  0  0  0  0
   -0.2980   -1.8510   -1.1290 C   0  0  0  0  0  0  0  0  0  0  0  0
    3.0620    0.4400    1.4260 C   0  0  0  0  0  0  0  0  0  0  0  0
    3.8090    1.3860    1.7870 O   0  0  0  0  0  0  0  0  0  0  0  0
    3.1030   -0.7190    2.1800 O   0  0  0  0  0  0  0  0  0  0  0  0
  1  2  2  0
  2  3  1  0
  2 13  1  0
  4  3  1  1
  4  5  1  0
  4 12  1  0
  5  6  2  0
  6  7  1  0
  6 10  1  0
  7  8  2  0
  7  9  1  0
 10 11  2  0
 11 12  1  0
 13 14  2  0
 13 15  1  0
M  END
>  <MODEL>  (101) 
       1

$$$$
../data/cho_sim50/152762478.pdb
     RDKit          3D

 15 15  0  0  1  0  0  0  0  0999 V2000
    2.3430   -2.0580    0.6690 C   0  0  0  0  0  0  0  0  0  0  0  0
    2.2170   -0.7610    0.7300 C   0  0  0  0  0  0  0  0  0  0  0  0
    0.9670   -0.2180    0.9680 O   0  0  0  0  0  0  0  0  0  0  0  0
    0.2170    0.3560   -0.1090 C   0  0  2  0  0  0  0  0  0  0  0  0
   -1.0490    0.8420    0.4490 C   0  0  0  0  0  0  0  0  0  0  0  0
   -2.2500    0.5350   -0.0080 C   0  0  0  0  0  0  0  0  0  0  0  0
   -3.4100    1.0950    0.6510 C   0  0  0  0  0  0  0  0  0  0  0  0
   -4.5450    0.8060    0.2210 O   0  0  0  0  0  0  0  0  0  0  0  0
   -3.2970    1.9330    1.7350 O   0  0  0  0  0  0  0  0  0  0  0  0
   -2.3310   -0.3530   -1.1550 C   0  0  0  0  0  0  0  0  0  0  0  0
   -1.2550   -0.8500   -1.7370 C   0  0  0  0  0  0  0  0  0  0  0  0
    0.1220   -0.5480   -1.2770 C   0  0  0  0  0  0  0  0  0  0  0  0
    3.3780    0.0810    0.5500 C   0  0  0  0  0  0  0  0  0  0  0  0
    4.5150   -0.3920    0.3350 O   0  0  0  0  0  0  0  0  0  0  0  0
    3.2310    1.4500    0.6180 O   0  0  0  0  0  0  0  0  0  0  0  0
  1  2  2  0
  2  3  1  0
  2 13  1  0
  4  3  1  1
  4  5  1  0
  4 12  1  0
  5  6  2  0
  6  7  1  0
  6 10  1  0
  7  8  2  0
  7  9  1  0
 10 11  2  0
 11 12  1  0
 13 14  2  0
 13 15  1  0
M  END
>  <MODEL>  (102) 
       2

$$$$
../data/cho_sim50/154496778.pdb
     RDKit          3D

 16 16  0  0  1  0  0  0  0  0999 V2000
    4.3600    0.0590   -0.8550 O   0  0  0  0  0  0  0  0  0  0  0  0
    4.1250   -0.0300    0.3720 C   0  0  0  0  0  0  0  0  0  0  0  0
    5.1440   -0.1950    1.2910 O   0  0  0  0  0  0  0  0  0  0  0  0
    2.7530    0.0410    0.8290 C   0  0  0  0  0  0  0  0  0  0  0  0
    2.5000   -0.0460    2.0500 O   0  0  0  0  0  0  0  0  0  0  0  0
    1.7120    0.2050   -0.0500 O   0  0  0  0  0  0  0  0  0  0  0  0
    0.3710    0.2750    0.3970 C   0  0  1  0  0  0  0  0  0  0  0  0
   -0.1620    1.6500    0.0290 C   0  0  0  0  0  0  0  0  0  0  0  0
   -1.6250    1.7310    0.2580 C   0  0  0  0  0  0  0  0  0  0  0  0
   -2.3900    0.7170   -0.1040 C   0  0  0  0  0  0  0  0  0  0  0  0
   -1.8350   -0.5100   -0.7360 C   0  0  2  0  0  0  0  0  0  0  0  0
   -2.7210   -1.6380   -0.4110 C   0  0  0  0  0  0  0  0  0  0  0  0
   -2.2840   -2.6180    0.2150 O   0  0  0  0  0  0  0  0  0  0  0  0
   -4.0390   -1.6080   -0.8010 O   0  0  0  0  0  0  0  0  0  0  0  0
   -0.4730   -0.7920   -0.2060 C   0  0  0  0  0  0  0  0  0  0  0  0
   -0.0500   -1.9190   -0.2720 O   0  0  0  0  0  0  0  0  0  0  0  0
  1  2  2  0
  2  3  1  0
  2  4  1  0
  4  5  2  0
  4  6  1  0
  7  6  1  6
  7  8  1  0
  7 15  1  0
  8  9  1  0
  9 10  2  0
 10 11  1  0
 11 12  1  1
 11 15  1  0
 12 13  2  0
 12 14  1  0
 15 16  2  0
M  END
$$$$
../data/cho_sim50/156542946.pdb
     RDKit          3D

 13 13  0  0  1  0  0  0  0  0999 V2000
    3.3870    0.8520    0.3400 C   0  0  0  0  0  0  0  0  0  0  0  0
    2.2960    0.8480    1.1020 C   0  0  0  0  0  0  0  0  0  0  0  0
    1.5030   -0.2860    1.1570 O   0  0  0  0  0  0  0  0  0  0  0  0
    0.6880   -0.5950    0.0150 C   0  0  2  0  0  0  0  0  0  0  0  0
   -0.2160    0.5540   -0.1710 C   0  0  0  0  0  0  0  0  0  0  0  0
   -1.5330    0.4590   -0.2150 C   0  0  0  0  0  0  0  0  0  0  0  0
   -2.3340    1.6650   -0.4040 C   0  0  0  0  0  0  0  0  0  0  0  0
   -3.5890    1.6170   -0.4510 O   0  0  0  0  0  0  0  0  0  0  0  0
   -1.7260    2.9050   -0.5370 O   0  0  0  0  0  0  0  0  0  0  0  0
   -2.2000   -0.8270   -0.0770 C   0  0  0  0  0  0  0  0  0  0  0  0
   -1.4520   -1.8880    0.0920 C   0  0  0  0  0  0  0  0  0  0  0  0
    0.0140   -1.9100    0.1570 C   0  0  1  0  0  0  0  0  0  0  0  0
    0.5590   -2.8350   -0.7590 O   0  0  0  0  0  0  0  0  0  0  0  0
  1  2  2  0
  2  3  1  0
  4  3  1  1
  4  5  1  0
  4 12  1  0
  5  6  2  0
  6  7  1  0
  6 10  1  0
  7  8  2  0
  7  9  1  0
 10 11  2  0
 11 12  1  0
 12 13  1  6
M  END
$$$$
../data/cho_sim50/162821403.pdb
     RDKit          3D

 16 16  0  0  1  0  0  0  0  0999 V2000
    3.6300    1.7750   -0.7200 O   0  0  0  0  0  0  0  0  0  0  0  0
    3.7980    0.8610    0.1210 C   0  0  0  0  0  0  0  0  0  0  0  0
    5.0490    0.7480    0.6940 O   0  0  0  0  0  0  0  0  0  0  0  0
    2.7050   -0.0410    0.4720 C   0  0  0  0  0  0  0  0  0  0  0  0
    2.8650   -0.9510    1.3070 O   0  0  0  0  0  0  0  0  0  0  0  0
    1.4730    0.1170   -0.1320 O   0  0  0  0  0  0  0  0  0  0  0  0
    0.3770   -0.7520    0.1890 C   0  0  2  0  0  0  0  0  0  0  0  0
   -0.0360   -1.5010   -1.0590 C   0  0  0  0  0  0  0  0  0  0  0  0
   -0.8440   -0.5700   -1.8950 C   0  0  0  0  0  0  0  0  0  0  0  0
   -1.8180    0.1180   -1.3260 C   0  0  0  0  0  0  0  0  0  0  0  0
   -2.0760   -0.0560    0.1220 C   0  0  2  0  0  0  0  0  0  0  0  0
   -3.0310    0.9020    0.6660 C   0  0  0  0  0  0  0  0  0  0  0  0
   -2.6820    1.6750    1.5850 O   0  0  0  0  0  0  0  0  0  0  0  0
   -4.3190    0.9840    0.1950 O   0  0  0  0  0  0  0  0  0  0  0  0
   -0.7530   -0.0090    0.7890 C   0  0  0  0  0  0  0  0  0  0  0  0
   -0.6270    0.6320    1.8040 O   0  0  0  0  0  0  0  0  0  0  0  0
  1  2  2  0
  2  3  1  0
  2  4  1  0
  4  5  2  0
  4  6  1  0
  7  6  1  6
  7  8  1  0
  7 15  1  0
  8  9  1  0
  9 10  2  0
 10 11  1  0
 11 12  1  1
 11 15  1  0
 12 13  2  0
 12 14  1  0
 15 16  2  0
M  END
>  <MODEL>  (105) 
       1

$$$$
../data/cho_sim50/162821403.pdb
     RDKit          3D

 16 16  0  0  1  0  0  0  0  0999 V2000
    3.9970   -1.2170   -1.7920 O   0  0  0  0  0  0  0  0  0  0  0  0
    4.0210   -0.3370   -0.8940 C   0  0  0  0  0  0  0  0  0  0  0  0
    5.2690    0.0870   -0.4640 O   0  0  0  0  0  0  0  0  0  0  0  0
    2.7900    0.2140   -0.3310 C   0  0  0  0  0  0  0  0  0  0  0  0
    2.8620    1.0910    0.5630 O   0  0  0  0  0  0  0  0  0  0  0  0
    1.5300   -0.1700   -0.7200 O   0  0  0  0  0  0  0  0  0  0  0  0
    0.3340    0.3520   -0.1860 C   0  0  1  0  0  0  0  0  0  0  0  0
   -0.4970    1.0820   -1.2090 C   0  0  0  0  0  0  0  0  0  0  0  0
   -1.7210    1.5640   -0.5080 C   0  0  0  0  0  0  0  0  0  0  0  0
   -2.2420    0.9860    0.5540 C   0  0  0  0  0  0  0  0  0  0  0  0
   -1.6980   -0.2250    1.2130 C   0  0  1  0  0  0  0  0  0  0  0  0
   -2.7090   -1.2800    1.3840 C   0  0  0  0  0  0  0  0  0  0  0  0
   -3.0110   -1.7070    2.5220 O   0  0  0  0  0  0  0  0  0  0  0  0
   -3.3500   -1.8260    0.2850 O   0  0  0  0  0  0  0  0  0  0  0  0
   -0.5140   -0.6650    0.4550 C   0  0  0  0  0  0  0  0  0  0  0  0
   -0.2450   -1.8330    0.3610 O   0  0  0  0  0  0  0  0  0  0  0  0
  1  2  2  0
  2  3  1  0
  2  4  1  0
  4  5  2  0
  4  6  1  0
  7  6  1  6
  7  8  1  0
  7 15  1  0
  8  9  1  0
  9 10  2  0
 10 11  1  0
 11 12  1  6
 11 15  1  0
 12 13  2  0
 12 14  1  0
 15 16  2  0
M  END
>  <MODEL>  (106) 
       2

$$$$
../data/cho_sim50/164132417.pdb
     RDKit          3D

 17 17  0  0  1  0  0  0  0  0999 V2000
   -1.8740   -2.1260    0.6120 C   0  0  0  0  0  0  0  0  0  0  0  0
   -2.1800   -0.8640    0.7140 C   0  0  0  0  0  0  0  0  0  0  0  0
   -1.2520    0.0380    1.1590 O   0  0  0  0  0  0  0  0  0  0  0  0
   -0.3220    0.6970    0.2730 C   0  0  2  0  0  0  0  0  0  0  0  0
    0.5140   -0.2970   -0.4080 C   0  0  0  0  0  0  0  0  0  0  0  0
    1.8250   -0.3540   -0.4170 C   0  0  0  0  0  0  0  0  0  0  0  0
    2.5720   -1.3840   -1.1250 C   0  0  0  0  0  0  0  0  0  0  0  0
    1.9790   -2.2850   -1.7740 O   0  0  0  0  0  0  0  0  0  0  0  0
    3.9540   -1.4100   -1.1100 O   0  0  0  0  0  0  0  0  0  0  0  0
    2.5110    0.6890    0.3350 C   0  0  0  0  0  0  0  0  0  0  0  0
    4.6230    0.6570    0.3640 I   0  0  0  0  0  0  0  0  0  0  0  0
    1.8660    1.6270    0.9820 C   0  0  0  0  0  0  0  0  0  0  0  0
    0.4010    1.7340    1.0230 C   0  0  1  0  0  0  0  0  0  0  0  0
    0.0870    3.0330    0.5710 O   0  0  0  0  0  0  0  0  0  0  0  0
   -3.5210   -0.4190    0.3510 C   0  0  0  0  0  0  0  0  0  0  0  0
   -4.4010   -1.2180   -0.0620 O   0  0  0  0  0  0  0  0  0  0  0  0
   -3.9030    0.9220    0.4410 O   0  0  0  0  0  0  0  0  0  0  0  0
  1  2  2  0
  2  3  1  0
  2 15  1  0
  4  3  1  1
  4  5  1  0
  4 13  1  0
  5  6  2  0
  6  7  1  0
  6 10  1  0
  7  8  2  0
  7  9  1  0
 10 11  1  0
 10 12  2  0
 12 13  1  0
 13 14  1  6
 15 16  2  0
 15 17  1  0
M  END
>  <MODEL>  (107) 
       1

$$$$
../data/cho_sim50/164132417.pdb
     RDKit          3D

 17 17  0  0  1  0  0  0  0  0999 V2000
    1.6790   -0.5130   -1.0890 C   0  0  0  0  0  0  0  0  0  0  0  0
    2.1720    0.1650   -0.0590 C   0  0  0  0  0  0  0  0  0  0  0  0
    1.4510    0.4780    1.0530 O   0  0  0  0  0  0  0  0  0  0  0  0
    0.0730    0.2970    1.2630 C   0  0  1  0  0  0  0  0  0  0  0  0
   -0.7400    1.0300    0.2850 C   0  0  0  0  0  0  0  0  0  0  0  0
   -1.7480    0.4610   -0.3390 C   0  0  0  0  0  0  0  0  0  0  0  0
   -2.5310    1.2350   -1.3030 C   0  0  0  0  0  0  0  0  0  0  0  0
   -2.2440    2.4290   -1.5310 O   0  0  0  0  0  0  0  0  0  0  0  0
   -3.5980    0.6670   -1.9760 O   0  0  0  0  0  0  0  0  0  0  0  0
   -2.1000   -0.9240   -0.1420 C   0  0  0  0  0  0  0  0  0  0  0  0
   -3.7510   -1.7670   -1.1840 I   0  0  0  0  0  0  0  0  0  0  0  0
   -1.3900   -1.6580    0.6880 C   0  0  0  0  0  0  0  0  0  0  0  0
   -0.2330   -1.1400    1.4400 C   0  0  2  0  0  0  0  0  0  0  0  0
   -0.4500   -1.3860    2.8180 O   0  0  0  0  0  0  0  0  0  0  0  0
    3.5800    0.6170   -0.0980 C   0  0  0  0  0  0  0  0  0  0  0  0
    4.0350    1.2540    0.8750 O   0  0  0  0  0  0  0  0  0  0  0  0
    4.4090    0.3570   -1.1760 O   0  0  0  0  0  0  0  0  0  0  0  0
  1  2  2  0
  2  3  1  0
  2 15  1  0
  4  3  1  6
  4  5  1  0
  4 13  1  0
  5  6  2  0
  6  7  1  0
  6 10  1  0
  7  8  2  0
  7  9  1  0
 10 11  1  0
 10 12  2  0
 12 13  1  0
 13 14  1  1
 15 16  2  0
 15 17  1  0
M  END
>  <MODEL>  (108) 
       2

$$$$
../data/cho_sim50/164132417.pdb
     RDKit          3D

 17 17  0  0  1  0  0  0  0  0999 V2000
   -2.1330   -0.1700   -1.7560 C   0  0  0  0  0  0  0  0  0  0  0  0
   -2.1820   -0.1240   -0.4360 C   0  0  0  0  0  0  0  0  0  0  0  0
   -1.2360   -0.7590    0.3180 O   0  0  0  0  0  0  0  0  0  0  0  0
    0.0890   -1.0480   -0.0960 C   0  0  1  0  0  0  0  0  0  0  0  0
    0.7090    0.2630   -0.4020 C   0  0  0  0  0  0  0  0  0  0  0  0
    1.7690    0.7350    0.2100 C   0  0  0  0  0  0  0  0  0  0  0  0
    2.3010    2.0400   -0.1660 C   0  0  0  0  0  0  0  0  0  0  0  0
    3.3160    2.5220    0.4010 O   0  0  0  0  0  0  0  0  0  0  0  0
    1.7090    2.8010   -1.1660 O   0  0  0  0  0  0  0  0  0  0  0  0
    2.4130   -0.0290    1.2560 C   0  0  0  0  0  0  0  0  0  0  0  0
    4.1220    0.6820    2.2760 I   0  0  0  0  0  0  0  0  0  0  0  0
    1.9480   -1.2000    1.6040 C   0  0  0  0  0  0  0  0  0  0  0  0
    0.7700   -1.8170    0.9820 C   0  0  2  0  0  0  0  0  0  0  0  0
    1.0890   -3.0780    0.4330 O   0  0  0  0  0  0  0  0  0  0  0  0
   -3.2390    0.6000    0.2280 C   0  0  0  0  0  0  0  0  0  0  0  0
   -3.2800    0.6400    1.4710 O   0  0  0  0  0  0  0  0  0  0  0  0
   -4.1960    1.2430   -0.4990 O   0  0  0  0  0  0  0  0  0  0  0  0
  1  2  2  0
  2  3  1  0
  2 15  1  0
  4  3  1  1
  4  5  1  0
  4 13  1  0
  5  6  2  0
  6  7  1  0
  6 10  1  0
  7  8  2  0
  7  9  1  0
 10 11  1  0
 10 12  2  0
 12 13  1  0
 13 14  1  6
 15 16  2  0
 15 17  1  0
M  END
>  <MODEL>  (109) 
       3

$$$$
../data/cho_sim50/164132417.pdb
     RDKit          3D

 17 17  0  0  1  0  0  0  0  0999 V2000
   -2.5740   -2.1180   -0.0870 C   0  0  0  0  0  0  0  0  0  0  0  0
   -2.2970   -0.9000    0.3300 C   0  0  0  0  0  0  0  0  0  0  0  0
   -1.0520   -0.6020    0.8000 O   0  0  0  0  0  0  0  0  0  0  0  0
   -0.2040    0.4030    0.2190 C   0  0  1  0  0  0  0  0  0  0  0  0
    1.0230    0.4000    1.0140 C   0  0  0  0  0  0  0  0  0  0  0  0
    2.2440    0.2600    0.5410 C   0  0  0  0  0  0  0  0  0  0  0  0
    3.4240    0.2670    1.3940 C   0  0  0  0  0  0  0  0  0  0  0  0
    4.5570    0.1280    0.8710 O   0  0  0  0  0  0  0  0  0  0  0  0
    3.3300    0.4240    2.7670 O   0  0  0  0  0  0  0  0  0  0  0  0
    2.3780    0.0910   -0.8990 C   0  0  0  0  0  0  0  0  0  0  0  0
    4.3180   -0.1360   -1.6940 I   0  0  0  0  0  0  0  0  0  0  0  0
    1.3410    0.0760   -1.7030 C   0  0  0  0  0  0  0  0  0  0  0  0
   -0.0280    0.2260   -1.2280 C   0  0  2  0  0  0  0  0  0  0  0  0
   -0.7060    1.2360   -1.9690 O   0  0  0  0  0  0  0  0  0  0  0  0
   -3.3640    0.1240    0.2760 C   0  0  0  0  0  0  0  0  0  0  0  0
   -4.5050   -0.1670   -0.1600 O   0  0  0  0  0  0  0  0  0  0  0  0
   -3.1360    1.4190    0.6990 O   0  0  0  0  0  0  0  0  0  0  0  0
  1  2  2  0
  2  3  1  0
  2 15  1  0
  4  3  1  1
  4  5  1  0
  4 13  1  0
  5  6  2  0
  6  7  1  0
  6 10  1  0
  7  8  2  0
  7  9  1  0
 10 11  1  0
 10 12  2  0
 12 13  1  0
 13 14  1  6
 15 16  2  0
 15 17  1  0
M  END
>  <MODEL>  (110) 
       4

$$$$
../data/cho_sim50/164132417.pdb
     RDKit          3D

 17 17  0  0  1  0  0  0  0  0999 V2000
    2.5650    0.2300   -1.0900 C   0  0  0  0  0  0  0  0  0  0  0  0
    2.2350    0.0710    0.1800 C   0  0  0  0  0  0  0  0  0  0  0  0
    1.1880   -0.7490    0.5550 O   0  0  0  0  0  0  0  0  0  0  0  0
    0.1010   -1.0590   -0.3520 C   0  0  2  0  0  0  0  0  0  0  0  0
   -0.5570    0.1800   -0.7350 C   0  0  0  0  0  0  0  0  0  0  0  0
   -1.8230    0.4740   -0.5140 C   0  0  0  0  0  0  0  0  0  0  0  0
   -2.3770    1.7540   -0.9440 C   0  0  0  0  0  0  0  0  0  0  0  0
   -3.5830    2.0240   -0.7290 O   0  0  0  0  0  0  0  0  0  0  0  0
   -1.6040    2.6810   -1.5850 O   0  0  0  0  0  0  0  0  0  0  0  0
   -2.6850   -0.5020    0.1690 C   0  0  0  0  0  0  0  0  0  0  0  0
   -4.7280   -0.0330    0.5290 I   0  0  0  0  0  0  0  0  0  0  0  0
   -2.1650   -1.6310    0.5350 C   0  0  0  0  0  0  0  0  0  0  0  0
   -0.7840   -2.0370    0.3320 C   0  0  2  0  0  0  0  0  0  0  0  0
   -0.1790   -2.4170    1.5630 O   0  0  0  0  0  0  0  0  0  0  0  0
    2.9770    0.7650    1.2180 C   0  0  0  0  0  0  0  0  0  0  0  0
    2.6300    0.5860    2.4160 O   0  0  0  0  0  0  0  0  0  0  0  0
    4.0500    1.6120    0.9100 O   0  0  0  0  0  0  0  0  0  0  0  0
  1  2  2  0
  2  3  1  0
  2 15  1  0
  4  3  1  1
  4  5  1  0
  4 13  1  0
  5  6  2  0
  6  7  1  0
  6 10  1  0
  7  8  2  0
  7  9  1  0
 10 11  1  0
 10 12  2  0
 12 13  1  0
 13 14  1  1
 15 16  2  0
 15 17  1  0
M  END
>  <MODEL>  (111) 
       5

$$$$
