../data/cho_sim50/306.pdb


 16 16  0  0  0  0  0  0  0  0999 V2000
   69.6307   48.9757   53.6196 C   0  0  0  0  0  0  0  0  0  0  0  0
   69.3108   47.9454   54.5924 C   0  0  0  0  0  0  0  0  0  0  0  0
   68.8270   46.7459   54.3531 C   0  0  0  0  0  0  0  0  0  0  0  0
   68.5820   46.4125   52.9674 C   0  0  0  0  0  0  0  0  0  0  0  0
   68.8296   47.2600   51.9997 C   0  0  0  0  0  0  0  0  0  0  0  0
   69.3669   48.6028   52.2175 C   0  0  0  0  0  0  0  0  0  0  0  0
   70.4672   48.8464   51.3734 O   0  0  0  0  0  0  0  0  0  0  0  0
   68.5433   45.7862   55.4312 C   0  0  0  0  0  0  0  0  0  0  0  0
   68.7880   46.1572   56.6038 O   0  0  0  0  0  0  0  0  0  0  0  0
   68.0354   44.5346   55.2222 O   0  0  0  0  0  0  0  0  0  0  0  0
   70.9880   49.4553   53.7893 O   0  0  0  0  0  0  0  0  0  0  0  0
   70.1921   51.5068   54.6415 C   0  0  0  0  0  0  0  0  0  0  0  0
   71.1874   50.6805   54.4098 C   0  0  0  0  0  0  0  0  0  0  0  0
   72.5319   51.0475   54.8083 C   0  0  0  0  0  0  0  0  0  0  0  0
   72.6930   51.7619   55.8215 O   0  0  0  0  0  0  0  0  0  0  0  0
   73.6612   50.6457   54.1215 O   0  0  0  0  0  0  0  0  0  0  0  0
 12 13  2  0  0  0
 13 11  1  0  0  0
 13 14  1  0  0  0
  1 11  1  0  0  0
  1  2  1  0  0  0
  1  6  1  0  0  0
  2  3  2  0  0  0
  3  8  1  0  0  0
  3  4  1  0  0  0
  8  9  2  0  0  0
  8 10  1  0  0  0
  4  5  2  0  0  0
  5  6  1  0  0  0
  6  7  1  0  0  0
 14 15  2  0  0  0
 14 16  1  0  0  0
M  END
> <minimizedAffinity>
-6.84973

$$$$
../data/cho_sim50/12039.pdb


 16 16  0  0  0  0  0  0  0  0999 V2000
   70.1087   49.3753   53.5483 C   0  0  0  0  0  0  0  0  0  0  0  0
   69.4177   48.5351   54.5482 C   0  0  0  0  0  0  0  0  0  0  0  0
   68.9473   47.3674   54.2429 C   0  0  0  0  0  0  0  0  0  0  0  0
   69.0628   46.8083   52.9123 C   0  0  0  0  0  0  0  0  0  0  0  0
   69.6576   47.4795   51.9638 C   0  0  0  0  0  0  0  0  0  0  0  0
   70.2317   48.8122   52.1861 C   0  0  0  0  0  0  0  0  0  0  0  0
   69.5998   49.6740   51.2542 O   0  0  0  0  0  0  0  0  0  0  0  0
   68.2757   46.5947   55.2864 C   0  0  0  0  0  0  0  0  0  0  0  0
   67.9039   47.1415   56.3312 O   0  0  0  0  0  0  0  0  0  0  0  0
   68.0569   45.2395   55.1001 O   0  0  0  0  0  0  0  0  0  0  0  0
   71.3965   49.6301   54.0892 O   0  0  0  0  0  0  0  0  0  0  0  0
   70.8834   51.7835   54.7931 C   0  0  0  0  0  0  0  0  0  0  0  0
   71.7908   50.8785   54.5370 C   0  0  0  0  0  0  0  0  0  0  0  0
   73.2130   51.1542   54.7114 C   0  0  0  0  0  0  0  0  0  0  0  0
   74.0641   50.5968   54.0008 O   0  0  0  0  0  0  0  0  0  0  0  0
   73.6519   52.0512   55.6803 O   0  0  0  0  0  0  0  0  0  0  0  0
 12 13  2  0  0  0
 13 11  1  0  0  0
 13 14  1  0  0  0
  1 11  1  0  0  0
  1  2  1  0  0  0
  1  6  1  0  0  0
  2  3  2  0  0  0
  3  8  1  0  0  0
  3  4  1  0  0  0
  8  9  2  0  0  0
  8 10  1  0  0  0
  4  5  2  0  0  0
  5  6  1  0  0  0
  6  7  1  0  0  0
 14 15  2  0  0  0
 14 16  1  0  0  0
M  END
> <minimizedAffinity>
-6.86432

$$$$
../data/cho_sim50/5460312.pdb


 16 16  0  0  0  0  0  0  0  0999 V2000
   69.3524   48.6324   55.7407 C   0  0  0  0  0  0  0  0  0  0  0  0
   69.7419   48.6920   54.3431 C   0  0  0  0  0  0  0  0  0  0  0  0
   69.3374   47.8890   53.3850 C   0  0  0  0  0  0  0  0  0  0  0  0
   68.4580   46.7949   53.7574 C   0  0  0  0  0  0  0  0  0  0  0  0
   68.1018   46.6325   55.0008 C   0  0  0  0  0  0  0  0  0  0  0  0
   68.5186   47.4756   56.1080 C   0  0  0  0  0  0  0  0  0  0  0  0
   69.1569   46.6510   57.0535 O   0  0  0  0  0  0  0  0  0  0  0  0
   69.7917   48.0465   52.0096 C   0  0  0  0  0  0  0  0  0  0  0  0
   69.9044   47.0365   51.2734 O   0  0  0  0  0  0  0  0  0  0  0  0
   70.1014   49.2810   51.4922 O   0  0  0  0  0  0  0  0  0  0  0  0
   68.7698   49.8718   56.1297 O   0  0  0  0  0  0  0  0  0  0  0  0
   69.2570   50.4999   58.2812 C   0  0  0  0  0  0  0  0  0  0  0  0
   68.3220   50.1810   57.3750 C   0  0  0  0  0  0  0  0  0  0  0  0
   66.9541   50.2060   57.8352 C   0  0  0  0  0  0  0  0  0  0  0  0
   66.5106   49.2813   58.5446 O   0  0  0  0  0  0  0  0  0  0  0  0
   66.0886   51.2401   57.5134 O   0  0  0  0  0  0  0  0  0  0  0  0
 12 13  2  0  0  0
 13 11  1  0  0  0
 13 14  1  0  0  0
  1 11  1  0  0  0
  1  2  1  0  0  0
  1  6  1  0  0  0
  2  3  2  0  0  0
  3  8  1  0  0  0
  3  4  1  0  0  0
  8  9  2  0  0  0
  8 10  1  0  0  0
  4  5  2  0  0  0
  5  6  1  0  0  0
  6  7  1  0  0  0
 14 15  2  0  0  0
 14 16  1  0  0  0
M  END
> <minimizedAffinity>
-6.77510

$$$$
../data/cho_sim50/10680903.pdb


 16 16  0  0  0  0  0  0  0  0999 V2000
   70.0921   49.2480   53.5369 C   0  0  0  0  0  0  0  0  0  0  0  0
   69.4538   48.4066   54.5280 C   0  0  0  0  0  0  0  0  0  0  0  0
   68.9271   47.2410   54.2440 C   0  0  0  0  0  0  0  0  0  0  0  0
   68.9759   46.7307   52.8679 C   0  0  0  0  0  0  0  0  0  0  0  0
   69.5439   47.4429   51.9392 C   0  0  0  0  0  0  0  0  0  0  0  0
   70.1472   48.7307   52.1648 C   0  0  0  0  0  0  0  0  0  0  0  0
   69.6356   49.7072   51.2545 O   0  0  0  0  0  0  0  0  0  0  0  0
   68.2983   46.4512   55.3076 C   0  0  0  0  0  0  0  0  0  0  0  0
   67.9779   47.0216   56.3717 O   0  0  0  0  0  0  0  0  0  0  0  0
   68.0706   45.0839   55.1157 O   0  0  0  0  0  0  0  0  0  0  0  0
   71.4282   49.6040   53.9182 O   0  0  0  0  0  0  0  0  0  0  0  0
   70.8026   51.6840   54.6634 C   0  0  0  0  0  0  0  0  0  0  0  0
   71.7609   50.8235   54.4450 C   0  0  0  0  0  0  0  0  0  0  0  0
   73.1538   51.1799   54.7649 C   0  0  0  0  0  0  0  0  0  0  0  0
   74.0482   50.6984   54.0484 O   0  0  0  0  0  0  0  0  0  0  0  0
   73.4759   52.0131   55.8127 O   0  0  0  0  0  0  0  0  0  0  0  0
 12 13  2  0  0  0
 13 11  1  0  0  0
 13 14  1  0  0  0
  1 11  1  0  0  0
  1  2  1  0  0  0
  1  6  1  0  0  0
  2  3  2  0  0  0
  3  8  1  0  0  0
  3  4  1  0  0  0
  8  9  2  0  0  0
  8 10  1  0  0  0
  4  5  2  0  0  0
  5  6  1  0  0  0
  6  7  1  0  0  0
 14 15  2  0  0  0
 14 16  1  0  0  0
M  END
> <minimizedAffinity>
-6.95703

$$$$
../data/cho_sim50/10751803.pdb


 16 16  0  0  0  0  0  0  0  0999 V2000
   70.1155   49.3026   53.5261 C   0  0  0  0  0  0  0  0  0  0  0  0
   69.4498   48.4414   54.5074 C   0  0  0  0  0  0  0  0  0  0  0  0
   68.9454   47.2734   54.2340 C   0  0  0  0  0  0  0  0  0  0  0  0
   69.0238   46.7454   52.8812 C   0  0  0  0  0  0  0  0  0  0  0  0
   69.6003   47.4502   51.9546 C   0  0  0  0  0  0  0  0  0  0  0  0
   70.2015   48.7722   52.1419 C   0  0  0  0  0  0  0  0  0  0  0  0
   69.6126   49.7252   51.2763 O   0  0  0  0  0  0  0  0  0  0  0  0
   68.2885   46.4589   55.2727 C   0  0  0  0  0  0  0  0  0  0  0  0
   67.9478   46.9695   56.3441 O   0  0  0  0  0  0  0  0  0  0  0  0
   68.0457   45.1096   55.0590 O   0  0  0  0  0  0  0  0  0  0  0  0
   71.4410   49.6441   53.9222 O   0  0  0  0  0  0  0  0  0  0  0  0
   70.8061   51.7117   54.7513 C   0  0  0  0  0  0  0  0  0  0  0  0
   71.7712   50.8618   54.4833 C   0  0  0  0  0  0  0  0  0  0  0  0
   73.1717   51.1539   54.7549 C   0  0  0  0  0  0  0  0  0  0  0  0
   74.0770   50.6594   54.0358 O   0  0  0  0  0  0  0  0  0  0  0  0
   73.5787   51.9745   55.7966 O   0  0  0  0  0  0  0  0  0  0  0  0
 12 13  2  0  0  0
 13 11  1  0  0  0
 13 14  1  0  0  0
  1 11  1  0  0  0
  1  2  1  0  0  0
  1  6  1  0  0  0
  2  3  2  0  0  0
  3  8  1  0  0  0
  3  4  1  0  0  0
  8  9  2  0  0  0
  8 10  1  0  0  0
  4  5  2  0  0  0
  5  6  1  0  0  0
  6  7  1  0  0  0
 14 15  2  0  0  0
 14 16  1  0  0  0
M  END
> <minimizedAffinity>
-6.92589

$$$$
../data/cho_sim50/11086296.pdb


 18 18  0  0  0  0  0  0  0  0999 V2000
   70.0930   49.2062   53.5347 C   0  0  0  0  0  0  0  0  0  0  0  0
   69.4647   48.2836   54.4960 C   0  0  0  0  0  0  0  0  0  0  0  0
   68.9587   47.1253   54.1835 C   0  0  0  0  0  0  0  0  0  0  0  0
   68.9880   46.6550   52.8049 C   0  0  0  0  0  0  0  0  0  0  0  0
   69.5290   47.4105   51.8795 C   0  0  0  0  0  0  0  0  0  0  0  0
   70.1258   48.7299   52.1245 C   0  0  0  0  0  0  0  0  0  0  0  0
   69.5461   49.6882   51.2747 O   0  0  0  0  0  0  0  0  0  0  0  0
   68.3532   46.2683   55.1878 C   0  0  0  0  0  0  0  0  0  0  0  0
   68.1534   46.7322   56.3518 O   0  0  0  0  0  0  0  0  0  0  0  0
   67.9881   44.9566   54.9133 O   0  0  0  0  0  0  0  0  0  0  0  0
   68.3025   43.9132   55.7847 C   0  0  0  0  0  0  0  0  0  0  0  0
   71.4096   49.5563   53.9714 O   0  0  0  0  0  0  0  0  0  0  0  0
   70.7166   51.6094   54.8310 C   0  0  0  0  0  0  0  0  0  0  0  0
   71.6971   50.7951   54.5023 C   0  0  0  0  0  0  0  0  0  0  0  0
   73.0661   51.2307   54.7117 C   0  0  0  0  0  0  0  0  0  0  0  0
   74.0172   50.7582   54.0482 O   0  0  0  0  0  0  0  0  0  0  0  0
   73.3890   52.1976   55.6612 O   0  0  0  0  0  0  0  0  0  0  0  0
   73.8102   53.5115   55.2642 C   0  0  0  0  0  0  0  0  0  0  0  0
 13 14  2  0  0  0
 14 12  1  0  0  0
 14 15  1  0  0  0
  1 12  1  0  0  0
  1  2  1  0  0  0
  1  6  1  0  0  0
  2  3  2  0  0  0
  3  8  1  0  0  0
  3  4  1  0  0  0
  8  9  2  0  0  0
  8 10  1  0  0  0
 10 11  1  0  0  0
  4  5  2  0  0  0
  5  6  1  0  0  0
  6  7  1  0  0  0
 15 16  2  0  0  0
 15 17  1  0  0  0
 17 18  1  0  0  0
M  END
> <minimizedAffinity>
-6.71593

$$$$
../data/cho_sim50/13257072.pdb


 16 16  0  0  0  0  0  0  0  0999 V2000
   70.1497   49.3449   53.5197 C   0  0  0  0  0  0  0  0  0  0  0  0
   69.4650   48.4850   54.4878 C   0  0  0  0  0  0  0  0  0  0  0  0
   68.9439   47.2992   54.2348 C   0  0  0  0  0  0  0  0  0  0  0  0
   69.0602   46.8045   52.8677 C   0  0  0  0  0  0  0  0  0  0  0  0
   69.6483   47.4829   51.9192 C   0  0  0  0  0  0  0  0  0  0  0  0
   70.2558   48.8220   52.1361 C   0  0  0  0  0  0  0  0  0  0  0  0
   69.5613   49.6958   51.2651 O   0  0  0  0  0  0  0  0  0  0  0  0
   68.2752   46.5007   55.2585 C   0  0  0  0  0  0  0  0  0  0  0  0
   67.9117   47.0372   56.3339 O   0  0  0  0  0  0  0  0  0  0  0  0
   68.0229   45.1510   55.0837 O   0  0  0  0  0  0  0  0  0  0  0  0
   71.4528   49.6511   54.0312 O   0  0  0  0  0  0  0  0  0  0  0  0
   70.8386   51.7753   54.9018 C   0  0  0  0  0  0  0  0  0  0  0  0
   71.7566   50.8955   54.5705 C   0  0  0  0  0  0  0  0  0  0  0  0
   73.1589   51.2138   54.7691 C   0  0  0  0  0  0  0  0  0  0  0  0
   73.5384   52.0562   55.6507 O   0  0  0  0  0  0  0  0  0  0  0  0
   74.1017   50.5793   53.9742 O   0  0  0  0  0  0  0  0  0  0  0  0
 12 13  2  0  0  0
 13 11  1  0  0  0
 13 14  1  0  0  0
  1 11  1  0  0  0
  1  2  1  0  0  0
  1  6  1  0  0  0
  2  3  2  0  0  0
  3  8  1  0  0  0
  3  4  1  0  0  0
  8  9  2  0  0  0
  8 10  1  0  0  0
  4  5  2  0  0  0
  5  6  1  0  0  0
  6  7  1  0  0  0
 14 15  2  0  0  0
 14 16  1  0  0  0
M  END
> <minimizedAffinity>
-6.89057

$$$$
../data/cho_sim50/16219080.pdb


 16 16  0  0  0  0  0  0  0  0999 V2000
   70.1298   49.2809   53.5121 C   0  0  0  0  0  0  0  0  0  0  0  0
   69.5028   48.4197   54.5081 C   0  0  0  0  0  0  0  0  0  0  0  0
   68.9332   47.2502   54.2871 C   0  0  0  0  0  0  0  0  0  0  0  0
   68.9461   46.7925   52.8971 C   0  0  0  0  0  0  0  0  0  0  0  0
   69.4822   47.4899   51.9365 C   0  0  0  0  0  0  0  0  0  0  0  0
   70.1169   48.7806   52.1444 C   0  0  0  0  0  0  0  0  0  0  0  0
   69.6460   49.7426   51.2137 O   0  0  0  0  0  0  0  0  0  0  0  0
   68.3295   46.4501   55.3345 C   0  0  0  0  0  0  0  0  0  0  0  0
   68.0251   46.9851   56.4176 O   0  0  0  0  0  0  0  0  0  0  0  0
   68.0911   45.1088   55.1469 O   0  0  0  0  0  0  0  0  0  0  0  0
   71.4558   49.5887   53.9825 O   0  0  0  0  0  0  0  0  0  0  0  0
   70.7929   51.6860   54.6829 C   0  0  0  0  0  0  0  0  0  0  0  0
   71.7767   50.8427   54.4576 C   0  0  0  0  0  0  0  0  0  0  0  0
   73.1456   51.2612   54.7165 C   0  0  0  0  0  0  0  0  0  0  0  0
   74.0873   50.7201   54.0857 O   0  0  0  0  0  0  0  0  0  0  0  0
   73.4715   52.2427   55.6369 O   0  0  0  0  0  0  0  0  0  0  0  0
 12 13  2  0  0  0
 13 11  1  0  0  0
 13 14  1  0  0  0
  1 11  1  0  0  0
  1  2  1  0  0  0
  1  6  1  0  0  0
  2  3  2  0  0  0
  3  8  1  0  0  0
  3  4  1  0  0  0
  8  9  2  0  0  0
  8 10  1  0  0  0
  4  5  2  0  0  0
  5  6  1  0  0  0
  6  7  1  0  0  0
 14 15  2  0  0  0
 14 16  1  0  0  0
M  END
> <minimizedAffinity>
-6.89657

$$$$
../data/cho_sim50/24962614.pdb


 18 18  0  0  0  0  0  0  0  0999 V2000
   70.0146   49.2646   54.1818 C   0  0  0  0  0  0  0  0  0  0  0  0
   69.4532   48.5868   55.2767 C   0  0  0  0  0  0  0  0  0  0  0  0
   68.8312   47.4540   55.1277 O   0  0  0  0  0  0  0  0  0  0  0  0
   68.6712   46.8524   53.9814 C   0  0  0  0  0  0  0  0  0  0  0  0
   69.1820   47.4312   52.8422 C   0  0  0  0  0  0  0  0  0  0  0  0
   69.8492   48.6367   52.9703 C   0  0  0  0  0  0  0  0  0  0  0  0
   70.2965   49.1249   51.9071 O   0  0  0  0  0  0  0  0  0  0  0  0
   67.9579   45.5775   53.8914 C   0  0  0  0  0  0  0  0  0  0  0  0
   67.9511   44.7840   54.8490 O   0  0  0  0  0  0  0  0  0  0  0  0
   67.2813   45.2392   52.7370 O   0  0  0  0  0  0  0  0  0  0  0  0
   71.9499   50.7350   54.6715 C   0  0  0  0  0  0  0  0  0  0  0  0
   70.7005   50.5209   54.3717 C   0  0  0  0  0  0  0  0  0  0  0  0
   72.4312   52.1054   54.8159 C   0  0  0  0  0  0  0  0  0  0  0  0
   73.0956   52.6475   53.9099 O   0  0  0  0  0  0  0  0  0  0  0  0
   72.1558   52.8209   55.9605 O   0  0  0  0  0  0  0  0  0  0  0  0
   71.9996   51.9850   58.1573 C   0  0  0  0  0  0  0  0  0  0  0  0
   72.8971   52.7126   57.1613 C   0  0  0  0  0  0  0  0  0  0  0  0
   73.1711   54.0845   57.6921 C   0  0  0  0  0  0  0  0  0  0  0  0
 16 17  1  0  0  0
 17 18  1  0  0  0
 17 15  1  0  0  0
 15 13  1  0  0  0
 13 14  2  0  0  0
 13 11  1  0  0  0
 11 12  2  0  0  0
 12  1  1  0  0  0
  1  2  2  0  0  0
  1  6  1  0  0  0
  2  3  1  0  0  0
  3  4  1  0  0  0
  4  8  1  0  0  0
  4  5  2  0  0  0
  8  9  2  0  0  0
  8 10  1  0  0  0
  5  6  1  0  0  0
  6  7  2  0  0  0
M  END
> <minimizedAffinity>
-6.33380

$$$$
../data/cho_sim50/44123452.pdb


 16 16  0  0  0  0  0  0  0  0999 V2000
   69.9763   49.6117   54.0444 C   0  0  0  0  0  0  0  0  0  0  0  0
   69.5785   48.5001   54.9123 C   0  0  0  0  0  0  0  0  0  0  0  0
   69.0229   47.3192   54.7352 C   0  0  0  0  0  0  0  0  0  0  0  0
   68.6147   46.7587   53.4559 C   0  0  0  0  0  0  0  0  0  0  0  0
   68.9824   47.1423   52.2349 C   0  0  0  0  0  0  0  0  0  0  0  0
   69.9038   48.2428   51.9139 C   0  0  0  0  0  0  0  0  0  0  0  0
   69.6215   49.5213   52.6186 C   0  0  0  0  0  0  0  0  0  0  0  0
   68.8078   46.5238   55.9365 C   0  0  0  0  0  0  0  0  0  0  0  0
   68.5080   45.3101   55.9478 O   0  0  0  0  0  0  0  0  0  0  0  0
   68.9492   47.1713   57.1514 O   0  0  0  0  0  0  0  0  0  0  0  0
   71.3784   49.7884   54.2212 O   0  0  0  0  0  0  0  0  0  0  0  0
   71.1261   51.8328   55.3301 C   0  0  0  0  0  0  0  0  0  0  0  0
   71.9188   50.9301   54.7910 C   0  0  0  0  0  0  0  0  0  0  0  0
   73.3508   51.1621   54.8109 C   0  0  0  0  0  0  0  0  0  0  0  0
   74.0987   50.6338   53.9568 O   0  0  0  0  0  0  0  0  0  0  0  0
   73.9625   51.9693   55.7616 O   0  0  0  0  0  0  0  0  0  0  0  0
 12 13  2  0  0  0
 13 11  1  0  0  0
 13 14  1  0  0  0
  1 11  1  0  0  0
  1  2  1  0  0  0
  1  7  1  0  0  0
  2  3  2  0  0  0
  3  8  1  0  0  0
  3  4  1  0  0  0
  8  9  2  0  0  0
  8 10  1  0  0  0
  4  5  2  0  0  0
  5  6  1  0  0  0
  6  7  1  0  0  0
 14 15  2  0  0  0
 14 16  1  0  0  0
M  END
> <minimizedAffinity>
-6.77185

$$$$
../data/cho_sim50/44329975.pdb


 13 13  0  0  0  0  0  0  0  0999 V2000
   69.9286   49.3621   53.6578 C   0  0  0  0  0  0  0  0  0  0  0  0
   69.0823   48.5500   54.5497 C   0  0  0  0  0  0  0  0  0  0  0  0
   68.5747   47.3711   54.2679 C   0  0  0  0  0  0  0  0  0  0  0  0
   68.8558   46.7923   52.9686 C   0  0  0  0  0  0  0  0  0  0  0  0
   69.5898   47.4189   52.1032 C   0  0  0  0  0  0  0  0  0  0  0  0
   70.1880   48.7283   52.3411 C   0  0  0  0  0  0  0  0  0  0  0  0
   69.7661   49.5489   51.2710 O   0  0  0  0  0  0  0  0  0  0  0  0
   71.1324   49.5874   54.3828 O   0  0  0  0  0  0  0  0  0  0  0  0
   70.8138   51.8127   54.9863 C   0  0  0  0  0  0  0  0  0  0  0  0
   71.6199   50.8083   54.7244 C   0  0  0  0  0  0  0  0  0  0  0  0
   73.0462   51.0279   54.8059 C   0  0  0  0  0  0  0  0  0  0  0  0
   73.5769   51.6971   55.7340 O   0  0  0  0  0  0  0  0  0  0  0  0
   73.8576   50.4816   53.8259 O   0  0  0  0  0  0  0  0  0  0  0  0
  9 10  2  0  0  0
 10  8  1  0  0  0
 10 11  1  0  0  0
  1  8  1  0  0  0
  1  2  1  0  0  0
  1  6  1  0  0  0
  2  3  2  0  0  0
  3  4  1  0  0  0
  4  5  2  0  0  0
  5  6  1  0  0  0
  6  7  1  0  0  0
 11 12  2  0  0  0
 11 13  1  0  0  0
M  END
> <minimizedAffinity>
-5.94491

$$$$
../data/cho_sim50/44329976.pdb


 13 13  0  0  0  0  0  0  0  0999 V2000
   69.6550   48.8220   53.6747 C   0  0  0  0  0  0  0  0  0  0  0  0
   68.7448   47.9753   54.4209 C   0  0  0  0  0  0  0  0  0  0  0  0
   68.2680   46.8443   53.9581 C   0  0  0  0  0  0  0  0  0  0  0  0
   68.6661   46.4027   52.6257 C   0  0  0  0  0  0  0  0  0  0  0  0
   69.4795   47.1148   51.9052 C   0  0  0  0  0  0  0  0  0  0  0  0
   70.0382   48.3617   52.3491 C   0  0  0  0  0  0  0  0  0  0  0  0
   69.9060   49.3807   51.3633 O   0  0  0  0  0  0  0  0  0  0  0  0
   70.7867   49.2153   54.4743 O   0  0  0  0  0  0  0  0  0  0  0  0
   70.0028   51.3988   54.3718 C   0  0  0  0  0  0  0  0  0  0  0  0
   71.0199   50.5817   54.5427 C   0  0  0  0  0  0  0  0  0  0  0  0
   72.3697   51.1118   54.8001 C   0  0  0  0  0  0  0  0  0  0  0  0
   72.5227   52.0115   55.6617 O   0  0  0  0  0  0  0  0  0  0  0  0
   73.4637   50.6349   54.1101 O   0  0  0  0  0  0  0  0  0  0  0  0
  9 10  2  0  0  0
 10  8  1  0  0  0
 10 11  1  0  0  0
  1  8  1  0  0  0
  1  2  1  0  0  0
  1  6  1  0  0  0
  2  3  2  0  0  0
  3  4  1  0  0  0
  4  5  2  0  0  0
  5  6  1  0  0  0
  6  7  1  0  0  0
 11 12  2  0  0  0
 11 13  1  0  0  0
M  END
> <minimizedAffinity>
-6.03061

$$$$
../data/cho_sim50/54448451.pdb


 16 16  0  0  0  0  0  0  0  0999 V2000
   69.5811   48.7909   54.9620 C   0  0  0  0  0  0  0  0  0  0  0  0
   68.8594   47.5149   54.8641 C   0  0  0  0  0  0  0  0  0  0  0  0
   68.6184   46.8831   53.7287 C   0  0  0  0  0  0  0  0  0  0  0  0
   69.0893   47.4846   52.4909 C   0  0  0  0  0  0  0  0  0  0  0  0
   69.7349   48.6217   52.4823 C   0  0  0  0  0  0  0  0  0  0  0  0
   70.0379   49.3784   53.6955 C   0  0  0  0  0  0  0  0  0  0  0  0
   71.4412   49.6420   53.7576 O   0  0  0  0  0  0  0  0  0  0  0  0
   67.8998   45.6174   53.6667 C   0  0  0  0  0  0  0  0  0  0  0  0
   67.9048   44.8490   54.6493 O   0  0  0  0  0  0  0  0  0  0  0  0
   67.1964   45.2210   52.5405 O   0  0  0  0  0  0  0  0  0  0  0  0
   68.7694   49.7624   55.6327 O   0  0  0  0  0  0  0  0  0  0  0  0
   69.6199   50.1442   57.7965 C   0  0  0  0  0  0  0  0  0  0  0  0
   68.6223   49.8172   57.0062 C   0  0  0  0  0  0  0  0  0  0  0  0
   67.3227   49.5038   57.5925 C   0  0  0  0  0  0  0  0  0  0  0  0
   66.5817   50.4058   58.0622 O   0  0  0  0  0  0  0  0  0  0  0  0
   66.8681   48.1971   57.6491 O   0  0  0  0  0  0  0  0  0  0  0  0
 12 13  2  0  0  0
 13 11  1  0  0  0
 13 14  1  0  0  0
  1 11  1  0  0  0
  1  2  1  0  0  0
  1  6  1  0  0  0
  2  3  2  0  0  0
  3  8  1  0  0  0
  3  4  1  0  0  0
  8  9  2  0  0  0
  8 10  1  0  0  0
  4  5  2  0  0  0
  5  6  1  0  0  0
  6  7  1  0  0  0
 14 15  2  0  0  0
 14 16  1  0  0  0
M  END
> <minimizedAffinity>
-6.68124

$$$$
../data/cho_sim50/57759058.pdb


 16 16  0  0  0  0  0  0  0  0999 V2000
   67.9566   46.9308   54.8590 C   0  0  0  0  0  0  0  0  0  0  0  0
   68.8324   47.9087   54.2112 C   0  0  0  0  0  0  0  0  0  0  0  0
   69.3109   47.7569   53.0036 C   0  0  0  0  0  0  0  0  0  0  0  0
   68.9713   46.5666   52.2485 C   0  0  0  0  0  0  0  0  0  0  0  0
   68.2029   45.6573   52.7545 C   0  0  0  0  0  0  0  0  0  0  0  0
   67.6132   45.7156   54.0841 C   0  0  0  0  0  0  0  0  0  0  0  0
   67.8755   44.5403   54.8203 O   0  0  0  0  0  0  0  0  0  0  0  0
   70.1937   48.7848   52.4054 C   0  0  0  0  0  0  0  0  0  0  0  0
   69.9873   49.2101   51.2677 O   0  0  0  0  0  0  0  0  0  0  0  0
   71.2489   49.2521   53.1486 O   0  0  0  0  0  0  0  0  0  0  0  0
   68.5058   46.6341   56.1326 O   0  0  0  0  0  0  0  0  0  0  0  0
   69.9679   47.8519   57.5522 C   0  0  0  0  0  0  0  0  0  0  0  0
   68.7901   47.6715   57.0093 C   0  0  0  0  0  0  0  0  0  0  0  0
   67.7481   48.6390   57.3729 C   0  0  0  0  0  0  0  0  0  0  0  0
   66.6610   48.2091   57.7989 O   0  0  0  0  0  0  0  0  0  0  0  0
   67.9424   49.9923   57.2557 O   0  0  0  0  0  0  0  0  0  0  0  0
 12 13  2  0  0  0
 13 11  1  0  0  0
 13 14  1  0  0  0
  1 11  1  0  0  0
  1  2  1  0  0  0
  1  6  1  0  0  0
  2  3  2  0  0  0
  3  8  1  0  0  0
  3  4  1  0  0  0
  8  9  2  0  0  0
  8 10  1  0  0  0
  4  5  2  0  0  0
  5  6  1  0  0  0
  6  7  1  0  0  0
 14 15  2  0  0  0
 14 16  1  0  0  0
M  END
> <minimizedAffinity>
-6.87671

$$$$
../data/cho_sim50/57759059.pdb


 16 16  0  0  0  0  0  0  0  0999 V2000
   70.2863   49.2376   53.4337 C   0  0  0  0  0  0  0  0  0  0  0  0
   69.5673   48.4816   54.4611 C   0  0  0  0  0  0  0  0  0  0  0  0
   68.9357   47.3384   54.2919 C   0  0  0  0  0  0  0  0  0  0  0  0
   68.9334   46.7496   52.9750 C   0  0  0  0  0  0  0  0  0  0  0  0
   69.5445   47.3423   51.9827 C   0  0  0  0  0  0  0  0  0  0  0  0
   70.2674   48.6115   52.0834 C   0  0  0  0  0  0  0  0  0  0  0  0
   69.6935   49.4873   51.1468 O   0  0  0  0  0  0  0  0  0  0  0  0
   68.2448   46.6631   55.3979 C   0  0  0  0  0  0  0  0  0  0  0  0
   67.7875   47.3735   56.3431 O   0  0  0  0  0  0  0  0  0  0  0  0
   68.1097   45.2978   55.3824 O   0  0  0  0  0  0  0  0  0  0  0  0
   69.8712   50.5839   53.3670 O   0  0  0  0  0  0  0  0  0  0  0  0
   69.1942   52.3921   54.7503 C   0  0  0  0  0  0  0  0  0  0  0  0
   70.1105   51.5599   54.2875 C   0  0  0  0  0  0  0  0  0  0  0  0
   71.4810   51.6948   54.8010 C   0  0  0  0  0  0  0  0  0  0  0  0
   71.7783   51.3615   55.9880 O   0  0  0  0  0  0  0  0  0  0  0  0
   72.5165   52.1888   54.0222 O   0  0  0  0  0  0  0  0  0  0  0  0
 12 13  2  0  0  0
 13 11  1  0  0  0
 13 14  1  0  0  0
  1 11  1  0  0  0
  1  2  1  0  0  0
  1  6  1  0  0  0
  2  3  2  0  0  0
  3  8  1  0  0  0
  3  4  1  0  0  0
  8  9  2  0  0  0
  8 10  1  0  0  0
  4  5  2  0  0  0
  5  6  1  0  0  0
  6  7  1  0  0  0
 14 15  2  0  0  0
 14 16  1  0  0  0
M  END
> <minimizedAffinity>
-6.65613

$$$$
../data/cho_sim50/59477064.pdb


 16 16  0  0  0  0  0  0  0  0999 V2000
   69.4726   48.9265   55.6367 C   0  0  0  0  0  0  0  0  0  0  0  0
   69.7819   48.9147   54.2245 C   0  0  0  0  0  0  0  0  0  0  0  0
   69.4483   47.9562   53.4122 C   0  0  0  0  0  0  0  0  0  0  0  0
   68.7308   46.8047   53.9245 C   0  0  0  0  0  0  0  0  0  0  0  0
   68.4152   46.7186   55.1974 C   0  0  0  0  0  0  0  0  0  0  0  0
   68.7625   47.7564   56.1620 C   0  0  0  0  0  0  0  0  0  0  0  0
   69.7415   47.0725   57.1590 C   0  0  0  0  0  0  0  0  0  0  0  0
   69.7975   48.0148   51.9843 C   0  0  0  0  0  0  0  0  0  0  0  0
   69.8902   46.9653   51.3090 O   0  0  0  0  0  0  0  0  0  0  0  0
   70.0210   49.2474   51.3987 O   0  0  0  0  0  0  0  0  0  0  0  0
   68.5732   50.0522   55.8102 O   0  0  0  0  0  0  0  0  0  0  0  0
   67.2667   51.0628   57.4281 C   0  0  0  0  0  0  0  0  0  0  0  0
   68.4575   50.6958   57.0251 C   0  0  0  0  0  0  0  0  0  0  0  0
   69.6054   50.9820   57.8721 C   0  0  0  0  0  0  0  0  0  0  0  0
   69.7551   50.4571   59.0111 O   0  0  0  0  0  0  0  0  0  0  0  0
   70.5969   51.8554   57.4575 O   0  0  0  0  0  0  0  0  0  0  0  0
 12 13  2  0  0  0
 13 11  1  0  0  0
 13 14  1  0  0  0
  1 11  1  0  0  0
  1  2  1  0  0  0
  1  6  1  0  0  0
  2  3  2  0  0  0
  3  8  1  0  0  0
  3  4  1  0  0  0
  8  9  2  0  0  0
  8 10  1  0  0  0
  4  5  2  0  0  0
  5  6  1  0  0  0
  6  7  1  0  0  0
 14 15  2  0  0  0
 14 16  1  0  0  0
M  END
> <minimizedAffinity>
-6.72131

$$$$
../data/cho_sim50/59477066.pdb


 16 16  0  0  0  0  0  0  0  0999 V2000
   69.3473   49.0072   55.2535 C   0  0  0  0  0  0  0  0  0  0  0  0
   69.0392   47.9713   56.2679 C   0  0  0  0  0  0  0  0  0  0  0  0
   68.7222   46.6335   55.7368 C   0  0  0  0  0  0  0  0  0  0  0  0
   68.7133   46.3798   54.4651 C   0  0  0  0  0  0  0  0  0  0  0  0
   69.0088   47.3676   53.4340 C   0  0  0  0  0  0  0  0  0  0  0  0
   69.3002   48.5799   53.8431 C   0  0  0  0  0  0  0  0  0  0  0  0
   69.6019   49.5891   52.7939 C   0  0  0  0  0  0  0  0  0  0  0  0
   68.9718   46.9804   52.0285 C   0  0  0  0  0  0  0  0  0  0  0  0
   69.9792   46.9531   51.2794 O   0  0  0  0  0  0  0  0  0  0  0  0
   67.7637   46.6088   51.4389 O   0  0  0  0  0  0  0  0  0  0  0  0
   68.4791   50.1413   55.4614 O   0  0  0  0  0  0  0  0  0  0  0  0
   68.1151   51.4293   57.3599 C   0  0  0  0  0  0  0  0  0  0  0  0
   68.9296   51.0798   56.3897 C   0  0  0  0  0  0  0  0  0  0  0  0
   70.2522   51.6726   56.3140 C   0  0  0  0  0  0  0  0  0  0  0  0
   70.9862   51.6511   57.3309 O   0  0  0  0  0  0  0  0  0  0  0  0
   70.7578   52.2649   55.1761 O   0  0  0  0  0  0  0  0  0  0  0  0
 12 13  2  0  0  0
 13 11  1  0  0  0
 13 14  1  0  0  0
  1 11  1  0  0  0
  1  2  1  0  0  0
  1  6  1  0  0  0
  2  3  1  0  0  0
  3  4  2  0  0  0
  4  5  1  0  0  0
  5  8  1  0  0  0
  5  6  2  0  0  0
  8  9  2  0  0  0
  8 10  1  0  0  0
  6  7  1  0  0  0
 14 15  2  0  0  0
 14 16  1  0  0  0
M  END
> <minimizedAffinity>
-6.24427

$$$$
../data/cho_sim50/66679548.pdb


 15 15  0  0  0  0  0  0  0  0999 V2000
   68.7419   46.4491   55.0475 C   0  0  0  0  0  0  0  0  0  0  0  0
   69.4238   47.5499   54.3524 C   0  0  0  0  0  0  0  0  0  0  0  0
   69.3798   47.7621   53.0706 C   0  0  0  0  0  0  0  0  0  0  0  0
   68.6125   46.8743   52.2239 C   0  0  0  0  0  0  0  0  0  0  0  0
   67.9702   45.8651   52.7518 C   0  0  0  0  0  0  0  0  0  0  0  0
   67.9490   45.5308   54.1842 C   0  0  0  0  0  0  0  0  0  0  0  0
   70.1045   48.9042   52.4601 C   0  0  0  0  0  0  0  0  0  0  0  0
   71.0881   49.3439   53.0831 O   0  0  0  0  0  0  0  0  0  0  0  0
   69.7100   49.4550   51.2628 O   0  0  0  0  0  0  0  0  0  0  0  0
   67.9400   47.0092   56.1003 O   0  0  0  0  0  0  0  0  0  0  0  0
   68.0911   49.0546   57.3444 C   0  0  0  0  0  0  0  0  0  0  0  0
   68.5238   47.8620   57.0156 C   0  0  0  0  0  0  0  0  0  0  0  0
   69.7501   47.3734   57.6811 C   0  0  0  0  0  0  0  0  0  0  0  0
   70.8489   47.9781   57.6047 O   0  0  0  0  0  0  0  0  0  0  0  0
   69.7465   46.2040   58.4358 O   0  0  0  0  0  0  0  0  0  0  0  0
 11 12  2  0  0  0
 12 10  1  0  0  0
 12 13  1  0  0  0
  1 10  1  0  0  0
  1  2  1  0  0  0
  1  6  1  0  0  0
  2  3  2  0  0  0
  3  7  1  0  0  0
  3  4  1  0  0  0
  7  8  2  0  0  0
  7  9  1  0  0  0
  4  5  2  0  0  0
  5  6  1  0  0  0
 13 14  2  0  0  0
 13 15  1  0  0  0
M  END
> <minimizedAffinity>
-6.59785

$$$$
../data/cho_sim50/67149829.pdb


 17 17  0  0  0  0  0  0  0  0999 V2000
   69.7408   50.5845   54.4869 C   0  0  0  0  0  0  0  0  0  0  0  0
   70.2351   49.6630   53.6955 C   0  0  0  0  0  0  0  0  0  0  0  0
   69.5806   48.3945   53.4136 C   0  0  0  0  0  0  0  0  0  0  0  0
   69.4131   47.9956   52.1882 C   0  0  0  0  0  0  0  0  0  0  0  0
   68.7591   46.7218   51.7632 C   0  0  0  0  0  0  0  0  0  0  0  0
   68.1613   46.0657   52.9321 C   0  0  0  0  0  0  0  0  0  0  0  0
   67.1782   45.3622   52.7845 O   0  0  0  0  0  0  0  0  0  0  0  0
   68.7040   46.2218   54.2978 C   0  0  0  0  0  0  0  0  0  0  0  0
   67.7653   45.8281   55.2486 O   0  0  0  0  0  0  0  0  0  0  0  0
   69.1301   47.6129   54.6127 C   0  0  0  0  0  0  0  0  0  0  0  0
   70.4968   51.8102   54.6842 C   0  0  0  0  0  0  0  0  0  0  0  0
   69.9710   52.8022   55.2453 O   0  0  0  0  0  0  0  0  0  0  0  0
   71.8161   51.9583   54.2731 O   0  0  0  0  0  0  0  0  0  0  0  0
   72.8948   52.1187   55.1400 C   0  0  0  0  0  0  0  0  0  0  0  0
   75.2291   51.5151   55.2489 O   0  0  0  0  0  0  0  0  0  0  0  0
   74.0864   51.3495   54.7620 C   0  0  0  0  0  0  0  0  0  0  0  0
   73.9510   50.3637   53.7950 O   0  0  0  0  0  0  0  0  0  0  0  0
 15 16  2  0  0  0
 16 17  1  0  0  0
 16 14  1  0  0  0
 14 13  1  0  0  0
 13 11  1  0  0  0
 11 12  2  0  0  0
 11  1  1  0  0  0
  1  2  2  0  0  0
  2  3  1  0  0  0
  3  4  2  0  0  0
  3 10  1  0  0  0
  4  5  1  0  0  0
  5  6  1  0  0  0
  6  7  2  0  0  0
  6  8  1  0  0  0
  8  9  1  0  0  0
  8 10  1  0  0  0
M  END
> <minimizedAffinity>
-6.65966

$$$$
../data/cho_sim50/70627842.pdb


 13 13  0  0  0  0  0  0  0  0999 V2000
   67.3191   45.9129   51.2585 C   0  0  0  0  0  0  0  0  0  0  0  0
   68.6289   46.2321   51.9870 C   0  0  0  0  0  0  0  0  0  0  0  0
   68.4381   46.0176   53.4423 C   0  0  0  0  0  0  0  0  0  0  0  0
   68.6301   46.9355   54.3561 C   0  0  0  0  0  0  0  0  0  0  0  0
   69.0594   48.2614   53.9322 C   0  0  0  0  0  0  0  0  0  0  0  0
   69.2507   48.5295   52.6494 C   0  0  0  0  0  0  0  0  0  0  0  0
   69.0396   47.5397   51.7096 O   0  0  0  0  0  0  0  0  0  0  0  0
   68.4232   46.6552   55.7781 C   0  0  0  0  0  0  0  0  0  0  0  0
   67.8112   47.4912   56.4927 O   0  0  0  0  0  0  0  0  0  0  0  0
   68.8716   45.5066   56.3871 O   0  0  0  0  0  0  0  0  0  0  0  0
   69.6841   49.8778   52.2687 C   0  0  0  0  0  0  0  0  0  0  0  0
   70.1049   50.7085   53.1002 O   0  0  0  0  0  0  0  0  0  0  0  0
   69.6237   50.2405   50.9423 O   0  0  0  0  0  0  0  0  0  0  0  0
  2  1  1  0  0  0
  2  3  1  0  0  0
  2  7  1  0  0  0
  3  4  2  0  0  0
  4  8  1  0  0  0
  4  5  1  0  0  0
  8  9  2  0  0  0
  8 10  1  0  0  0
  5  6  2  0  0  0
  6 11  1  0  0  0
  6  7  1  0  0  0
 11 12  2  0  0  0
 11 13  1  0  0  0
M  END
> <minimizedAffinity>
-6.15370

$$$$
../data/cho_sim50/70657798.pdb


 16 16  0  0  0  0  0  0  0  0999 V2000
   69.3425   48.8749   55.7577 C   0  0  0  0  0  0  0  0  0  0  0  0
   69.6458   48.9292   54.3264 C   0  0  0  0  0  0  0  0  0  0  0  0
   69.4042   47.9366   53.4937 C   0  0  0  0  0  0  0  0  0  0  0  0
   68.8079   46.7084   53.9821 C   0  0  0  0  0  0  0  0  0  0  0  0
   68.5097   46.5798   55.2507 C   0  0  0  0  0  0  0  0  0  0  0  0
   68.7474   47.6329   56.2270 C   0  0  0  0  0  0  0  0  0  0  0  0
   67.5281   47.8260   56.9217 O   0  0  0  0  0  0  0  0  0  0  0  0
   69.7370   48.0721   52.0810 C   0  0  0  0  0  0  0  0  0  0  0  0
   69.8511   47.0361   51.3755 O   0  0  0  0  0  0  0  0  0  0  0  0
   69.9188   49.3292   51.5453 O   0  0  0  0  0  0  0  0  0  0  0  0
   68.5146   50.0255   56.0173 O   0  0  0  0  0  0  0  0  0  0  0  0
   69.8988   50.9932   57.6185 C   0  0  0  0  0  0  0  0  0  0  0  0
   69.1849   51.1341   56.5204 C   0  0  0  0  0  0  0  0  0  0  0  0
   69.0969   52.4073   55.8552 C   0  0  0  0  0  0  0  0  0  0  0  0
   69.3100   53.4989   56.4195 O   0  0  0  0  0  0  0  0  0  0  0  0
   68.7527   52.4621   54.4992 O   0  0  0  0  0  0  0  0  0  0  0  0
 12 13  2  0  0  0
 13 11  1  0  0  0
 13 14  1  0  0  0
  1 11  1  0  0  0
  1  2  1  0  0  0
  1  6  1  0  0  0
  2  3  2  0  0  0
  3  8  1  0  0  0
  3  4  1  0  0  0
  8  9  2  0  0  0
  8 10  1  0  0  0
  4  5  2  0  0  0
  5  6  1  0  0  0
  6  7  1  0  0  0
 14 15  2  0  0  0
 14 16  1  0  0  0
M  END
> <minimizedAffinity>
-6.75359

$$$$
../data/cho_sim50/74374535.pdb


 18 18  0  0  0  0  0  0  0  0999 V2000
   69.9406   49.2205   53.8306 C   0  0  0  0  0  0  0  0  0  0  0  0
   69.3961   48.5517   54.9325 C   0  0  0  0  0  0  0  0  0  0  0  0
   68.7568   47.4190   54.8453 O   0  0  0  0  0  0  0  0  0  0  0  0
   68.5577   46.7874   53.7194 C   0  0  0  0  0  0  0  0  0  0  0  0
   69.0690   47.3912   52.5928 C   0  0  0  0  0  0  0  0  0  0  0  0
   69.7587   48.5971   52.6170 C   0  0  0  0  0  0  0  0  0  0  0  0
   70.2095   49.1181   51.5701 O   0  0  0  0  0  0  0  0  0  0  0  0
   67.8356   45.5145   53.6547 C   0  0  0  0  0  0  0  0  0  0  0  0
   67.8492   44.7722   54.6573 O   0  0  0  0  0  0  0  0  0  0  0  0
   67.1467   45.1135   52.5336 O   0  0  0  0  0  0  0  0  0  0  0  0
   71.7089   50.6797   54.7440 C   0  0  0  0  0  0  0  0  0  0  0  0
   70.6273   50.4660   54.0340 C   0  0  0  0  0  0  0  0  0  0  0  0
   72.2781   52.0405   54.8387 C   0  0  0  0  0  0  0  0  0  0  0  0
   72.9993   52.5411   53.9653 O   0  0  0  0  0  0  0  0  0  0  0  0
   71.9897   52.7789   55.9518 O   0  0  0  0  0  0  0  0  0  0  0  0
   71.9861   51.9644   58.1771 C   0  0  0  0  0  0  0  0  0  0  0  0
   72.7392   52.7260   57.1267 C   0  0  0  0  0  0  0  0  0  0  0  0
   73.1629   54.0999   57.6095 C   0  0  0  0  0  0  0  0  0  0  0  0
 16 17  1  0  0  0
 17 18  1  0  0  0
 17 15  1  0  0  0
 15 13  1  0  0  0
 13 14  2  0  0  0
 13 11  1  0  0  0
 11 12  2  0  0  0
 12  1  1  0  0  0
  1  2  2  0  0  0
  1  6  1  0  0  0
  2  3  1  0  0  0
  3  4  1  0  0  0
  4  8  1  0  0  0
  4  5  2  0  0  0
  8  9  2  0  0  0
  8 10  1  0  0  0
  5  6  1  0  0  0
  6  7  2  0  0  0
M  END
> <minimizedAffinity>
-6.45671

$$$$
../data/cho_sim50/88700420.pdb


 20 22  0  0  0  0  0  0  0  0999 V2000
   71.6931   51.7516   57.3114 C   0  0  0  0  0  0  0  0  0  0  0  0
   71.4409   51.0746   58.4064 C   0  0  0  0  0  0  0  0  0  0  0  0
   70.8409   49.7506   58.3740 C   0  0  0  0  0  0  0  0  0  0  0  0
   70.5645   49.2083   57.1599 C   0  0  0  0  0  0  0  0  0  0  0  0
   69.9368   47.9015   57.0725 C   0  0  0  0  0  0  0  0  0  0  0  0
   69.3910   47.5723   55.9156 C   0  0  0  0  0  0  0  0  0  0  0  0
   68.7420   46.3480   55.7631 C   0  0  0  0  0  0  0  0  0  0  0  0
   68.2841   45.9240   54.5457 C   0  0  0  0  0  0  0  0  0  0  0  0
   68.4585   46.7089   53.4372 C   0  0  0  0  0  0  0  0  0  0  0  0
   69.0989   47.9228   53.5359 C   0  0  0  0  0  0  0  0  0  0  0  0
   69.5627   48.3356   54.7808 C   0  0  0  0  0  0  0  0  0  0  0  0
   70.3053   49.4381   54.7548 C   0  0  0  0  0  0  0  0  0  0  0  0
   71.0129   49.8847   55.9431 C   0  0  0  0  0  0  0  0  0  0  0  0
   71.3592   51.2175   56.0705 O   0  0  0  0  0  0  0  0  0  0  0  0
   71.7054   54.1132   57.0535 O   0  0  0  0  0  0  0  0  0  0  0  0
   72.3186   53.0857   57.4103 C   0  0  0  0  0  0  0  0  0  0  0  0
   73.5897   53.2143   57.9000 O   0  0  0  0  0  0  0  0  0  0  0  0
   67.9712   46.2679   52.1441 C   0  0  0  0  0  0  0  0  0  0  0  0
   68.3330   46.8365   51.0792 O   0  0  0  0  0  0  0  0  0  0  0  0
   67.0867   45.2049   52.0250 O   0  0  0  0  0  0  0  0  0  0  0  0
 15 16  2  0  0  0
 16 17  1  0  0  0
 16  1  1  0  0  0
  1  2  2  0  0  0
  1 14  1  0  0  0
  2  3  1  0  0  0
  3  4  2  0  0  0
  4  5  1  0  0  0
  4 13  1  0  0  0
  5  6  2  0  0  0
  6  7  1  0  0  0
  6 11  1  0  0  0
  7  8  2  0  0  0
  8  9  1  0  0  0
  9 18  1  0  0  0
  9 10  2  0  0  0
 18 19  2  0  0  0
 18 20  1  0  0  0
 10 11  1  0  0  0
 11 12  2  0  0  0
 12 13  1  0  0  0
 13 14  1  0  0  0
M  END
> <minimizedAffinity>
-8.15846

$$$$
../data/cho_sim50/88700862.pdb


 20 22  0  0  0  0  0  0  0  0999 V2000
   71.6601   51.7135   57.3265 C   0  0  0  0  0  0  0  0  0  0  0  0
   70.8057   51.0771   58.1129 C   0  0  0  0  0  0  0  0  0  0  0  0
   69.8909   50.0664   57.6595 C   0  0  0  0  0  0  0  0  0  0  0  0
   69.8753   49.7610   56.3705 C   0  0  0  0  0  0  0  0  0  0  0  0
   69.0015   48.7302   55.8443 C   0  0  0  0  0  0  0  0  0  0  0  0
   69.1816   48.3013   54.5867 C   0  0  0  0  0  0  0  0  0  0  0  0
   68.3730   47.2959   54.0750 C   0  0  0  0  0  0  0  0  0  0  0  0
   68.4304   46.8828   52.7692 C   0  0  0  0  0  0  0  0  0  0  0  0
   69.3370   47.5082   51.9500 C   0  0  0  0  0  0  0  0  0  0  0  0
   70.1391   48.5095   52.4463 C   0  0  0  0  0  0  0  0  0  0  0  0
   70.0894   48.9473   53.7789 C   0  0  0  0  0  0  0  0  0  0  0  0
   70.8067   50.0045   54.1469 C   0  0  0  0  0  0  0  0  0  0  0  0
   70.6604   50.5961   55.4675 C   0  0  0  0  0  0  0  0  0  0  0  0
   71.6840   51.3499   55.9868 O   0  0  0  0  0  0  0  0  0  0  0  0
   73.6886   52.3964   58.2655 O   0  0  0  0  0  0  0  0  0  0  0  0
   72.5598   52.7506   57.8540 C   0  0  0  0  0  0  0  0  0  0  0  0
   72.2234   54.0740   57.9162 O   0  0  0  0  0  0  0  0  0  0  0  0
   67.5499   45.8075   52.2644 C   0  0  0  0  0  0  0  0  0  0  0  0
   67.2129   44.8445   52.9890 O   0  0  0  0  0  0  0  0  0  0  0  0
   67.0683   45.8382   50.9630 O   0  0  0  0  0  0  0  0  0  0  0  0
 15 16  2  0  0  0
 16 17  1  0  0  0
 16  1  1  0  0  0
  1  2  2  0  0  0
  1 14  1  0  0  0
  2  3  1  0  0  0
  3  4  2  0  0  0
  4  5  1  0  0  0
  4 13  1  0  0  0
  5  6  2  0  0  0
  6  7  1  0  0  0
  6 11  1  0  0  0
  7  8  2  0  0  0
  8 18  1  0  0  0
  8  9  1  0  0  0
 18 19  2  0  0  0
 18 20  1  0  0  0
  9 10  2  0  0  0
 10 11  1  0  0  0
 11 12  2  0  0  0
 12 13  1  0  0  0
 13 14  1  0  0  0
M  END
> <minimizedAffinity>
-8.07167

$$$$
../data/cho_sim50/89165212.pdb


 14 14  0  0  0  0  0  0  0  0999 V2000
   70.2926   49.2817   53.4295 C   0  0  0  0  0  0  0  0  0  0  0  0
   69.5399   48.6784   54.5132 C   0  0  0  0  0  0  0  0  0  0  0  0
   68.8640   47.5731   54.3968 C   0  0  0  0  0  0  0  0  0  0  0  0
   68.8314   46.8716   53.1147 C   0  0  0  0  0  0  0  0  0  0  0  0
   69.4814   47.3573   52.0875 C   0  0  0  0  0  0  0  0  0  0  0  0
   70.2575   48.5921   52.1426 C   0  0  0  0  0  0  0  0  0  0  0  0
   69.7111   49.4671   51.1360 O   0  0  0  0  0  0  0  0  0  0  0  0
   68.1291   47.0364   55.5594 C   0  0  0  0  0  0  0  0  0  0  0  0
   68.4726   45.9476   56.0359 O   0  0  0  0  0  0  0  0  0  0  0  0
   69.9267   50.6592   53.2320 O   0  0  0  0  0  0  0  0  0  0  0  0
   69.0815   52.3353   54.5963 C   0  0  0  0  0  0  0  0  0  0  0  0
   70.0944   51.6230   54.1797 C   0  0  0  0  0  0  0  0  0  0  0  0
   71.4109   51.8624   54.7342 C   0  0  0  0  0  0  0  0  0  0  0  0
   72.4230   52.1223   54.0339 O   0  0  0  0  0  0  0  0  0  0  0  0
 11 12  2  0  0  0
 12 13  1  0  0  0
 12 10  1  0  0  0
 13 14  2  0  0  0
  1 10  1  0  0  0
  1  2  1  0  0  0
  1  6  1  0  0  0
  2  3  2  0  0  0
  3  8  1  0  0  0
  3  4  1  0  0  0
  8  9  2  0  0  0
  4  5  2  0  0  0
  5  6  1  0  0  0
  6  7  1  0  0  0
M  END
> <minimizedAffinity>
-6.06586

$$$$
../data/cho_sim50/89197328.pdb


 18 18  0  0  0  0  0  0  0  0999 V2000
   70.4310   49.1509   53.5886 C   0  0  0  0  0  0  0  0  0  0  0  0
   69.7207   48.4579   54.6480 C   0  0  0  0  0  0  0  0  0  0  0  0
   68.9676   47.4092   54.4538 C   0  0  0  0  0  0  0  0  0  0  0  0
   68.7989   46.8626   53.1255 C   0  0  0  0  0  0  0  0  0  0  0  0
   69.3910   47.4019   52.0999 C   0  0  0  0  0  0  0  0  0  0  0  0
   70.2477   48.5742   52.2278 C   0  0  0  0  0  0  0  0  0  0  0  0
   69.6713   49.5768   51.4027 O   0  0  0  0  0  0  0  0  0  0  0  0
   68.2774   46.7690   55.6122 C   0  0  0  0  0  0  0  0  0  0  0  0
   68.1510   45.5351   55.6168 O   0  0  0  0  0  0  0  0  0  0  0  0
   67.8071   47.5612   56.6278 O   0  0  0  0  0  0  0  0  0  0  0  0
   70.2101   50.5303   53.5135 O   0  0  0  0  0  0  0  0  0  0  0  0
   71.6964   51.7934   54.7460 C   0  0  0  0  0  0  0  0  0  0  0  0
   70.4203   51.5194   54.4155 C   0  0  0  0  0  0  0  0  0  0  0  0
   69.3708   52.2986   55.0454 C   0  0  0  0  0  0  0  0  0  0  0  0
   68.5402   52.9908   54.4241 O   0  0  0  0  0  0  0  0  0  0  0  0
   69.2515   52.2966   56.4449 O   0  0  0  0  0  0  0  0  0  0  0  0
   68.8676   51.1091   57.0907 C   0  0  0  0  0  0  0  0  0  0  0  0
   67.3740   51.1353   57.3033 C   0  0  0  0  0  0  0  0  0  0  0  0
 12 13  2  0  0  0
 13 11  1  0  0  0
 13 14  1  0  0  0
  1 11  1  0  0  0
  1  2  1  0  0  0
  1  6  1  0  0  0
  2  3  2  0  0  0
  3  8  1  0  0  0
  3  4  1  0  0  0
  8  9  2  0  0  0
  8 10  1  0  0  0
  4  5  2  0  0  0
  5  6  1  0  0  0
  6  7  1  0  0  0
 14 15  2  0  0  0
 14 16  1  0  0  0
 16 17  1  0  0  0
 17 18  1  0  0  0
M  END
> <minimizedAffinity>
-6.74592

$$$$
../data/cho_sim50/89936619.pdb


 16 16  0  0  0  0  0  0  0  0999 V2000
   69.3680   48.7767   55.7762 C   0  0  0  0  0  0  0  0  0  0  0  0
   69.7335   48.8084   54.3518 C   0  0  0  0  0  0  0  0  0  0  0  0
   69.3911   47.9000   53.4473 C   0  0  0  0  0  0  0  0  0  0  0  0
   68.5884   46.7650   53.8589 C   0  0  0  0  0  0  0  0  0  0  0  0
   68.2126   46.6479   55.1032 C   0  0  0  0  0  0  0  0  0  0  0  0
   68.5466   47.6040   56.1607 C   0  0  0  0  0  0  0  0  0  0  0  0
   69.1827   46.8393   57.1752 O   0  0  0  0  0  0  0  0  0  0  0  0
   69.8099   48.0289   52.0557 C   0  0  0  0  0  0  0  0  0  0  0  0
   69.9129   46.9902   51.3713 O   0  0  0  0  0  0  0  0  0  0  0  0
   70.0985   49.2391   51.4541 O   0  0  0  0  0  0  0  0  0  0  0  0
   68.7607   50.0157   56.1437 O   0  0  0  0  0  0  0  0  0  0  0  0
   68.3454   50.2231   57.4417 C   0  0  0  0  0  0  0  0  0  0  0  0
   69.2328   50.4044   58.3433 O   0  0  0  0  0  0  0  0  0  0  0  0
   66.2381   51.2109   57.4940 O   0  0  0  0  0  0  0  0  0  0  0  0
   66.9509   50.2474   57.8441 C   0  0  0  0  0  0  0  0  0  0  0  0
   66.3990   49.2367   58.5978 O   0  0  0  0  0  0  0  0  0  0  0  0
 14 15  2  0  0  0
 15 16  1  0  0  0
 15 12  1  0  0  0
 12 13  2  0  0  0
 12 11  1  0  0  0
  1 11  1  0  0  0
  1  2  1  0  0  0
  1  6  1  0  0  0
  2  3  2  0  0  0
  3  8  1  0  0  0
  3  4  1  0  0  0
  8  9  2  0  0  0
  8 10  1  0  0  0
  4  5  2  0  0  0
  5  6  1  0  0  0
  6  7  1  0  0  0
M  END
> <minimizedAffinity>
-6.69652

$$$$
../data/cho_sim50/90145918.pdb


 18 18  0  0  0  0  0  0  0  0999 V2000
   69.4237   48.7968   53.3489 C   0  0  0  0  0  0  0  0  0  0  0  0
   69.1559   47.8861   54.4584 C   0  0  0  0  0  0  0  0  0  0  0  0
   68.7887   46.6411   54.2683 C   0  0  0  0  0  0  0  0  0  0  0  0
   68.6197   46.0672   52.9436 C   0  0  0  0  0  0  0  0  0  0  0  0
   68.8457   46.8293   51.9136 C   0  0  0  0  0  0  0  0  0  0  0  0
   69.2623   48.2425   51.9828 C   0  0  0  0  0  0  0  0  0  0  0  0
   70.4153   48.4469   51.2121 O   0  0  0  0  0  0  0  0  0  0  0  0
   68.5247   45.7428   55.4154 C   0  0  0  0  0  0  0  0  0  0  0  0
   68.7801   46.1181   56.5897 O   0  0  0  0  0  0  0  0  0  0  0  0
   67.9946   44.4741   55.2482 O   0  0  0  0  0  0  0  0  0  0  0  0
   68.3459   43.3723   56.0658 C   0  0  0  0  0  0  0  0  0  0  0  0
   67.2488   42.3589   56.0337 C   0  0  0  0  0  0  0  0  0  0  0  0
   70.7501   49.3239   53.4723 O   0  0  0  0  0  0  0  0  0  0  0  0
   70.0789   51.5003   54.1428 C   0  0  0  0  0  0  0  0  0  0  0  0
   71.0029   50.5277   54.0952 C   0  0  0  0  0  0  0  0  0  0  0  0
   72.2782   50.8176   54.7368 C   0  0  0  0  0  0  0  0  0  0  0  0
   73.0947   51.6785   54.3035 O   0  0  0  0  0  0  0  0  0  0  0  0
   72.6879   50.1484   55.8970 O   0  0  0  0  0  0  0  0  0  0  0  0
 14 15  2  0  0  0
 15 13  1  0  0  0
 15 16  1  0  0  0
  1 13  1  0  0  0
  1  2  1  0  0  0
  1  6  1  0  0  0
  2  3  2  0  0  0
  3  8  1  0  0  0
  3  4  1  0  0  0
  8  9  2  0  0  0
  8 10  1  0  0  0
 10 11  1  0  0  0
 11 12  1  0  0  0
  4  5  2  0  0  0
  5  6  1  0  0  0
  6  7  1  0  0  0
 16 17  2  0  0  0
 16 18  1  0  0  0
M  END
> <minimizedAffinity>
-6.70508

$$$$
../data/cho_sim50/90473446.pdb


 16 16  0  0  0  0  0  0  0  0999 V2000
   69.2906   48.7105   55.7191 C   0  0  0  0  0  0  0  0  0  0  0  0
   69.6747   48.7709   54.3241 C   0  0  0  0  0  0  0  0  0  0  0  0
   69.3507   47.8704   53.4335 C   0  0  0  0  0  0  0  0  0  0  0  0
   68.5607   46.7199   53.8059 C   0  0  0  0  0  0  0  0  0  0  0  0
   68.1639   46.5795   55.0512 C   0  0  0  0  0  0  0  0  0  0  0  0
   68.4823   47.5425   56.1138 C   0  0  0  0  0  0  0  0  0  0  0  0
   69.1221   46.7985   57.1345 O   0  0  0  0  0  0  0  0  0  0  0  0
   69.7939   48.0209   52.0222 C   0  0  0  0  0  0  0  0  0  0  0  0
   69.9620   47.0369   51.2634 O   0  0  0  0  0  0  0  0  0  0  0  0
   70.0311   49.2867   51.5189 O   0  0  0  0  0  0  0  0  0  0  0  0
   68.6461   49.9510   56.0294 O   0  0  0  0  0  0  0  0  0  0  0  0
   69.3357   50.4486   58.2036 C   0  0  0  0  0  0  0  0  0  0  0  0
   68.3530   50.2329   57.3524 C   0  0  0  0  0  0  0  0  0  0  0  0
   66.9539   50.2920   57.8099 C   0  0  0  0  0  0  0  0  0  0  0  0
   66.1958   51.2322   57.4909 O   0  0  0  0  0  0  0  0  0  0  0  0
   66.4484   49.2832   58.6178 O   0  0  0  0  0  0  0  0  0  0  0  0
 12 13  2  0  0  0
 13 11  1  0  0  0
 13 14  1  0  0  0
  1 11  1  0  0  0
  1  2  1  0  0  0
  1  6  1  0  0  0
  2  3  2  0  0  0
  3  8  1  0  0  0
  3  4  1  0  0  0
  8  9  2  0  0  0
  8 10  1  0  0  0
  4  5  2  0  0  0
  5  6  1  0  0  0
  6  7  1  0  0  0
 14 15  2  0  0  0
 14 16  1  0  0  0
M  END
> <minimizedAffinity>
-6.78180

$$$$
../data/cho_sim50/101035447.pdb


 16 16  0  0  0  0  0  0  0  0999 V2000
   69.1989   48.9148   55.6641 C   0  0  0  0  0  0  0  0  0  0  0  0
   69.6212   48.8633   54.2447 C   0  0  0  0  0  0  0  0  0  0  0  0
   69.3416   47.8600   53.4435 C   0  0  0  0  0  0  0  0  0  0  0  0
   68.5831   46.7166   53.9160 C   0  0  0  0  0  0  0  0  0  0  0  0
   68.1704   46.6840   55.1637 C   0  0  0  0  0  0  0  0  0  0  0  0
   68.4245   47.7436   56.1405 C   0  0  0  0  0  0  0  0  0  0  0  0
   69.0723   47.1405   57.2467 O   0  0  0  0  0  0  0  0  0  0  0  0
   69.8181   47.9280   52.0550 C   0  0  0  0  0  0  0  0  0  0  0  0
   69.8818   46.8844   51.3524 O   0  0  0  0  0  0  0  0  0  0  0  0
   70.1993   49.1359   51.5067 O   0  0  0  0  0  0  0  0  0  0  0  0
   68.4595   50.1393   55.7986 O   0  0  0  0  0  0  0  0  0  0  0  0
   67.1982   51.0122   57.5261 C   0  0  0  0  0  0  0  0  0  0  0  0
   68.3840   50.6931   57.0656 C   0  0  0  0  0  0  0  0  0  0  0  0
   69.5472   50.9296   57.8846 C   0  0  0  0  0  0  0  0  0  0  0  0
   69.6780   50.3669   58.9906 O   0  0  0  0  0  0  0  0  0  0  0  0
   70.5429   51.7871   57.4556 O   0  0  0  0  0  0  0  0  0  0  0  0
 12 13  2  0  0  0
 13 11  1  0  0  0
 13 14  1  0  0  0
  1 11  1  0  0  0
  1  2  1  0  0  0
  1  6  1  0  0  0
  2  3  2  0  0  0
  3  8  1  0  0  0
  3  4  1  0  0  0
  8  9  2  0  0  0
  8 10  1  0  0  0
  4  5  2  0  0  0
  5  6  1  0  0  0
  6  7  1  0  0  0
 14 15  2  0  0  0
 14 16  1  0  0  0
M  END
> <minimizedAffinity>
-6.69164

$$$$
../data/cho_sim50/101072171.pdb


 16 16  0  0  0  0  0  0  0  0999 V2000
   70.1072   49.2045   53.5196 C   0  0  0  0  0  0  0  0  0  0  0  0
   69.4689   48.3664   54.5171 C   0  0  0  0  0  0  0  0  0  0  0  0
   68.9225   47.2109   54.2378 C   0  0  0  0  0  0  0  0  0  0  0  0
   68.9348   46.7012   52.8715 C   0  0  0  0  0  0  0  0  0  0  0  0
   69.4937   47.4018   51.9258 C   0  0  0  0  0  0  0  0  0  0  0  0
   70.1210   48.6886   52.1454 C   0  0  0  0  0  0  0  0  0  0  0  0
   69.6025   49.6704   51.2487 O   0  0  0  0  0  0  0  0  0  0  0  0
   68.2939   46.4129   55.2952 C   0  0  0  0  0  0  0  0  0  0  0  0
   67.9854   46.9671   56.3670 O   0  0  0  0  0  0  0  0  0  0  0  0
   68.0551   45.0564   55.0846 O   0  0  0  0  0  0  0  0  0  0  0  0
   71.4448   49.5657   53.9512 O   0  0  0  0  0  0  0  0  0  0  0  0
   70.6483   51.6613   54.7200 C   0  0  0  0  0  0  0  0  0  0  0  0
   71.6519   50.8358   54.4755 C   0  0  0  0  0  0  0  0  0  0  0  0
   73.0013   51.2812   54.7676 C   0  0  0  0  0  0  0  0  0  0  0  0
   73.2048   52.1406   55.6370 O   0  0  0  0  0  0  0  0  0  0  0  0
   74.0954   50.7470   54.0721 O   0  0  0  0  0  0  0  0  0  0  0  0
 12 13  2  0  0  0
 13 11  1  0  0  0
 13 14  1  0  0  0
  1 11  1  0  0  0
  1  2  1  0  0  0
  1  6  1  0  0  0
  2  3  2  0  0  0
  3  8  1  0  0  0
  3  4  1  0  0  0
  8  9  2  0  0  0
  8 10  1  0  0  0
  4  5  2  0  0  0
  5  6  1  0  0  0
  6  7  1  0  0  0
 14 15  2  0  0  0
 14 16  1  0  0  0
M  END
> <minimizedAffinity>
-6.93638

$$$$
../data/cho_sim50/101931542.pdb


 17 17  0  0  0  0  0  0  0  0999 V2000
   70.3131   49.5239   53.7673 C   0  0  0  0  0  0  0  0  0  0  0  0
   69.6751   48.7922   54.8527 C   0  0  0  0  0  0  0  0  0  0  0  0
   69.7244   49.3148   56.1352 F   0  0  0  0  0  0  0  0  0  0  0  0
   69.0338   47.6524   54.7546 C   0  0  0  0  0  0  0  0  0  0  0  0
   68.9523   47.0515   53.4381 C   0  0  0  0  0  0  0  0  0  0  0  0
   69.4972   47.6263   52.3997 C   0  0  0  0  0  0  0  0  0  0  0  0
   70.2194   48.8882   52.4525 C   0  0  0  0  0  0  0  0  0  0  0  0
   69.6657   49.7716   51.4775 O   0  0  0  0  0  0  0  0  0  0  0  0
   68.4249   46.9911   55.8929 C   0  0  0  0  0  0  0  0  0  0  0  0
   68.7189   45.7929   56.1662 O   0  0  0  0  0  0  0  0  0  0  0  0
   67.5118   47.6594   56.6959 O   0  0  0  0  0  0  0  0  0  0  0  0
   71.6957   49.7896   54.0524 O   0  0  0  0  0  0  0  0  0  0  0  0
   71.2869   51.9556   54.7673 C   0  0  0  0  0  0  0  0  0  0  0  0
   72.1326   50.9681   54.5951 C   0  0  0  0  0  0  0  0  0  0  0  0
   73.5285   51.1093   54.9737 C   0  0  0  0  0  0  0  0  0  0  0  0
   74.4032   50.3799   54.4202 O   0  0  0  0  0  0  0  0  0  0  0  0
   73.9717   52.0055   55.9177 O   0  0  0  0  0  0  0  0  0  0  0  0
 13 14  2  0  0  0
 14 12  1  0  0  0
 14 15  1  0  0  0
  1 12  1  0  0  0
  1  2  1  0  0  0
  1  7  1  0  0  0
  2  3  1  0  0  0
  2  4  2  0  0  0
  4  9  1  0  0  0
  4  5  1  0  0  0
  9 10  2  0  0  0
  9 11  1  0  0  0
  5  6  2  0  0  0
  6  7  1  0  0  0
  7  8  1  0  0  0
 15 16  2  0  0  0
 15 17  1  0  0  0
M  END
> <minimizedAffinity>
-6.98241

$$$$
../data/cho_sim50/102515144.pdb


 14 14  0  0  0  0  0  0  0  0999 V2000
   70.7363   50.0819   54.4421 C   0  0  0  0  0  0  0  0  0  0  0  0
   69.9564   49.2388   55.2265 C   0  0  0  0  0  0  0  0  0  0  0  0
   69.2540   48.1820   54.6449 C   0  0  0  0  0  0  0  0  0  0  0  0
   69.3807   48.0365   53.2835 C   0  0  0  0  0  0  0  0  0  0  0  0
   70.1719   48.9120   52.5722 C   0  0  0  0  0  0  0  0  0  0  0  0
   70.2898   48.7765   51.3054 O   0  0  0  0  0  0  0  0  0  0  0  0
   70.8187   49.8930   53.1496 O   0  0  0  0  0  0  0  0  0  0  0  0
   72.1363   51.9424   54.3559 O   0  0  0  0  0  0  0  0  0  0  0  0
   71.4595   51.1703   55.0468 C   0  0  0  0  0  0  0  0  0  0  0  0
   71.4457   51.4190   56.4241 O   0  0  0  0  0  0  0  0  0  0  0  0
   68.6987   46.9755   52.5606 C   0  0  0  0  0  0  0  0  0  0  0  0
   67.9359   46.0518   53.0915 C   0  0  0  0  0  0  0  0  0  0  0  0
   67.2581   44.9879   52.3229 C   0  0  0  0  0  0  0  0  0  0  0  0
   66.8316   45.4553   51.0651 O   0  0  0  0  0  0  0  0  0  0  0  0
  8  9  2  0  0  0
  9 10  1  0  0  0
  9  1  1  0  0  0
  1  2  2  0  0  0
  1  7  1  0  0  0
  2  3  1  0  0  0
  3  4  2  0  0  0
  4 11  1  0  0  0
  4  5  1  0  0  0
 11 12  2  0  0  0
 12 13  1  0  0  0
 13 14  1  0  0  0
  5  6  2  0  0  0
  5  7  1  0  0  0
M  END
> <minimizedAffinity>
-6.13076

$$$$
../data/cho_sim50/102515145.pdb


 14 14  0  0  0  0  0  0  0  0999 V2000
   70.9348   49.9037   54.5131 C   0  0  0  0  0  0  0  0  0  0  0  0
   69.9873   49.2042   55.2449 C   0  0  0  0  0  0  0  0  0  0  0  0
   69.1626   48.2717   54.5990 C   0  0  0  0  0  0  0  0  0  0  0  0
   69.2927   48.0550   53.2562 C   0  0  0  0  0  0  0  0  0  0  0  0
   70.2537   48.7846   52.5928 C   0  0  0  0  0  0  0  0  0  0  0  0
   70.3671   48.5791   51.3516 O   0  0  0  0  0  0  0  0  0  0  0  0
   71.0134   49.6543   53.2293 O   0  0  0  0  0  0  0  0  0  0  0  0
   71.7348   51.0781   56.4101 O   0  0  0  0  0  0  0  0  0  0  0  0
   71.8003   50.8778   55.1755 C   0  0  0  0  0  0  0  0  0  0  0  0
   72.7067   51.5877   54.4190 O   0  0  0  0  0  0  0  0  0  0  0  0
   68.4666   47.1045   52.5373 C   0  0  0  0  0  0  0  0  0  0  0  0
   68.1123   45.9227   53.0120 C   0  0  0  0  0  0  0  0  0  0  0  0
   67.2554   44.9684   52.2317 C   0  0  0  0  0  0  0  0  0  0  0  0
   66.8605   45.6004   51.0359 O   0  0  0  0  0  0  0  0  0  0  0  0
  8  9  2  0  0  0
  9 10  1  0  0  0
  9  1  1  0  0  0
  1  2  2  0  0  0
  1  7  1  0  0  0
  2  3  1  0  0  0
  3  4  2  0  0  0
  4 11  1  0  0  0
  4  5  1  0  0  0
 11 12  2  0  0  0
 12 13  1  0  0  0
 13 14  1  0  0  0
  5  6  2  0  0  0
  5  7  1  0  0  0
M  END
> <minimizedAffinity>
-6.12153

$$$$
../data/cho_sim50/118797439.pdb


 16 16  0  0  0  0  0  0  0  0999 V2000
   67.8588   46.9996   54.8476 C   0  0  0  0  0  0  0  0  0  0  0  0
   68.7611   47.9466   54.1745 C   0  0  0  0  0  0  0  0  0  0  0  0
   69.2780   47.7992   52.9728 C   0  0  0  0  0  0  0  0  0  0  0  0
   68.9588   46.6133   52.2064 C   0  0  0  0  0  0  0  0  0  0  0  0
   68.1627   45.7114   52.7215 C   0  0  0  0  0  0  0  0  0  0  0  0
   67.5359   45.7800   54.0499 C   0  0  0  0  0  0  0  0  0  0  0  0
   67.9851   44.6442   54.7605 O   0  0  0  0  0  0  0  0  0  0  0  0
   70.1653   48.7986   52.3907 C   0  0  0  0  0  0  0  0  0  0  0  0
   71.2420   49.1529   52.9680 O   0  0  0  0  0  0  0  0  0  0  0  0
   69.8987   49.4219   51.1821 O   0  0  0  0  0  0  0  0  0  0  0  0
   68.4104   46.7034   56.1053 O   0  0  0  0  0  0  0  0  0  0  0  0
   69.8944   47.6788   57.6336 C   0  0  0  0  0  0  0  0  0  0  0  0
   68.7182   47.6546   57.0600 C   0  0  0  0  0  0  0  0  0  0  0  0
   67.7120   48.6415   57.4277 C   0  0  0  0  0  0  0  0  0  0  0  0
   66.5898   48.2661   57.8484 O   0  0  0  0  0  0  0  0  0  0  0  0
   67.9402   50.0069   57.3336 O   0  0  0  0  0  0  0  0  0  0  0  0
 12 13  2  0  0  0
 13 11  1  0  0  0
 13 14  1  0  0  0
  1 11  1  0  0  0
  1  2  1  0  0  0
  1  6  1  0  0  0
  2  3  2  0  0  0
  3  8  1  0  0  0
  3  4  1  0  0  0
  8  9  2  0  0  0
  8 10  1  0  0  0
  4  5  2  0  0  0
  5  6  1  0  0  0
  6  7  1  0  0  0
 14 15  2  0  0  0
 14 16  1  0  0  0
M  END
> <minimizedAffinity>
-6.76016

$$$$
../data/cho_sim50/138623598.pdb


 12 12  0  0  0  0  0  0  0  0999 V2000
   70.2327   49.2584   53.5109 C   0  0  0  0  0  0  0  0  0  0  0  0
   69.5469   48.4876   54.5402 C   0  0  0  0  0  0  0  0  0  0  0  0
   68.9623   47.3441   54.2850 C   0  0  0  0  0  0  0  0  0  0  0  0
   68.9762   46.7920   52.9478 C   0  0  0  0  0  0  0  0  0  0  0  0
   69.5693   47.4133   51.9586 C   0  0  0  0  0  0  0  0  0  0  0  0
   70.2572   48.7043   52.1325 C   0  0  0  0  0  0  0  0  0  0  0  0
   69.6264   49.5808   51.2040 O   0  0  0  0  0  0  0  0  0  0  0  0
   68.2771   46.6009   55.3723 C   0  0  0  0  0  0  0  0  0  0  0  0
   67.8850   47.2052   56.3841 O   0  0  0  0  0  0  0  0  0  0  0  0
   68.0776   45.2466   55.2602 O   0  0  0  0  0  0  0  0  0  0  0  0
   71.4960   50.7837   54.7423 C   0  0  0  0  0  0  0  0  0  0  0  0
   71.5056   49.6843   53.9304 O   0  0  0  0  0  0  0  0  0  0  0  0
 11 12  1  0  0  0
  1 12  1  0  0  0
  1  2  1  0  0  0
  1  6  1  0  0  0
  2  3  2  0  0  0
  3  8  1  0  0  0
  3  4  1  0  0  0
  8  9  2  0  0  0
  8 10  1  0  0  0
  4  5  2  0  0  0
  5  6  1  0  0  0
  6  7  1  0  0  0
M  END
> <minimizedAffinity>
-6.10504

$$$$
../data/cho_sim50/139992404.pdb


 15 15  0  0  0  0  0  0  0  0999 V2000
   69.5116   48.1168   53.4613 C   0  0  0  0  0  0  0  0  0  0  0  0
   69.9402   48.8952   54.4189 C   0  0  0  0  0  0  0  0  0  0  0  0
   69.6251   48.5403   55.7455 O   0  0  0  0  0  0  0  0  0  0  0  0
   68.9067   47.4547   56.1840 C   0  0  0  0  0  0  0  0  0  0  0  0
   68.4393   46.6016   55.0783 C   0  0  0  0  0  0  0  0  0  0  0  0
   68.7256   46.9200   53.8411 C   0  0  0  0  0  0  0  0  0  0  0  0
   69.9877   47.3189   51.3162 O   0  0  0  0  0  0  0  0  0  0  0  0
   69.7575   48.3552   52.0548 C   0  0  0  0  0  0  0  0  0  0  0  0
   69.7951   49.4991   51.3406 O   0  0  0  0  0  0  0  0  0  0  0  0
   70.7152   50.0985   54.2464 C   0  0  0  0  0  0  0  0  0  0  0  0
   70.0849   51.2188   54.2244 O   0  0  0  0  0  0  0  0  0  0  0  0
   72.0630   50.2391   54.0979 O   0  0  0  0  0  0  0  0  0  0  0  0
   69.6972   46.5924   57.1306 C   0  0  0  0  0  0  0  0  0  0  0  0
   70.4264   47.1365   57.9962 O   0  0  0  0  0  0  0  0  0  0  0  0
   69.6571   45.2099   57.0898 O   0  0  0  0  0  0  0  0  0  0  0  0
  7  8  2  0  0  0
  8  9  1  0  0  0
  8  1  1  0  0  0
  1  2  2  0  0  0
  1  6  1  0  0  0
  2 10  1  0  0  0
  2  3  1  0  0  0
 10 11  2  0  0  0
 10 12  1  0  0  0
  3  4  1  0  0  0
  4 13  1  0  0  0
  4  5  1  0  0  0
 13 14  2  0  0  0
 13 15  1  0  0  0
  5  6  2  0  0  0
M  END
> <minimizedAffinity>
-6.45994

$$$$
../data/cho_sim50/141076116.pdb


 20 20  0  0  0  0  0  0  0  0999 V2000
   70.0360   50.2800   54.2453 C   0  0  0  0  0  0  0  0  0  0  0  0
   70.2822   51.1433   53.3704 O   0  0  0  0  0  0  0  0  0  0  0  0
   69.0628   49.3481   53.9671 O   0  0  0  0  0  0  0  0  0  0  0  0
   67.9368   47.6038   56.8852 O   0  0  0  0  0  0  0  0  0  0  0  0
   68.4298   47.1636   55.8339 C   0  0  0  0  0  0  0  0  0  0  0  0
   68.5734   47.0680   54.4994 C   0  0  0  0  0  0  0  0  0  0  0  0
   67.8210   46.0525   53.7903 C   0  0  0  0  0  0  0  0  0  0  0  0
   67.9192   45.9074   52.4790 C   0  0  0  0  0  0  0  0  0  0  0  0
   68.8159   46.8128   51.7677 C   0  0  0  0  0  0  0  0  0  0  0  0
   69.5220   47.7505   52.3500 C   0  0  0  0  0  0  0  0  0  0  0  0
   69.4710   47.9765   53.7993 C   0  0  0  0  0  0  0  0  0  0  0  0
   70.7869   50.2712   55.5550 C   0  0  0  0  0  0  0  0  0  0  0  0
   70.8082   51.5795   56.0338 O   0  0  0  0  0  0  0  0  0  0  0  0
   71.8562   52.3756   56.2745 C   0  0  0  0  0  0  0  0  0  0  0  0
   72.1862   52.4891   57.5171 O   0  0  0  0  0  0  0  0  0  0  0  0
   72.6244   53.0929   55.3025 C   0  0  0  0  0  0  0  0  0  0  0  0
   73.6579   52.6852   54.6419 C   0  0  0  0  0  0  0  0  0  0  0  0
   74.2379   51.3893   54.7734 C   0  0  0  0  0  0  0  0  0  0  0  0
   73.9117   50.5507   53.8536 O   0  0  0  0  0  0  0  0  0  0  0  0
   75.0762   50.9020   55.7074 O   0  0  0  0  0  0  0  0  0  0  0  0
  4  5  2  0  0  0
  5  6  2  0  0  0
  6  7  1  0  0  0
  6 11  1  0  0  0
  7  8  2  0  0  0
  8  9  1  0  0  0
  9 10  2  0  0  0
 10 11  1  0  0  0
 11  3  1  0  0  0
  3  1  1  0  0  0
  1  2  2  0  0  0
  1 12  1  0  0  0
 12 13  1  0  0  0
 13 14  1  0  0  0
 14 15  2  0  0  0
 14 16  1  0  0  0
 16 17  2  0  0  0
 17 18  1  0  0  0
 18 19  2  0  0  0
 18 20  1  0  0  0
M  END
> <minimizedAffinity>
-7.00347

$$$$
../data/cho_sim50/141076156.pdb


 20 20  0  0  0  0  0  0  0  0999 V2000
   70.1020   50.4381   54.2057 C   0  0  0  0  0  0  0  0  0  0  0  0
   70.2747   51.3348   53.3441 O   0  0  0  0  0  0  0  0  0  0  0  0
   69.1500   49.4715   53.9475 O   0  0  0  0  0  0  0  0  0  0  0  0
   68.0126   47.5520   56.9578 O   0  0  0  0  0  0  0  0  0  0  0  0
   68.3274   47.4133   55.7728 C   0  0  0  0  0  0  0  0  0  0  0  0
   68.5435   47.2158   54.5038 C   0  0  0  0  0  0  0  0  0  0  0  0
   67.8694   46.1327   53.8150 C   0  0  0  0  0  0  0  0  0  0  0  0
   68.0740   45.9146   52.5305 C   0  0  0  0  0  0  0  0  0  0  0  0
   68.9864   46.7781   51.8159 C   0  0  0  0  0  0  0  0  0  0  0  0
   69.6337   47.7812   52.3738 C   0  0  0  0  0  0  0  0  0  0  0  0
   69.4733   48.1045   53.7988 C   0  0  0  0  0  0  0  0  0  0  0  0
   70.8930   50.3932   55.4865 C   0  0  0  0  0  0  0  0  0  0  0  0
   72.2156   50.0284   55.2542 O   0  0  0  0  0  0  0  0  0  0  0  0
   73.2248   50.8594   54.8235 C   0  0  0  0  0  0  0  0  0  0  0  0
   73.9345   50.4683   53.8664 O   0  0  0  0  0  0  0  0  0  0  0  0
   73.5133   52.1569   55.4094 C   0  0  0  0  0  0  0  0  0  0  0  0
   73.1906   53.2990   54.8247 C   0  0  0  0  0  0  0  0  0  0  0  0
   73.5188   54.5475   55.4854 C   0  0  0  0  0  0  0  0  0  0  0  0
   73.1985   55.6558   54.9863 O   0  0  0  0  0  0  0  0  0  0  0  0
   74.2022   54.5710   56.6991 O   0  0  0  0  0  0  0  0  0  0  0  0
  4  5  2  0  0  0
  5  6  2  0  0  0
  6  7  1  0  0  0
  6 11  1  0  0  0
  7  8  2  0  0  0
  8  9  1  0  0  0
  9 10  2  0  0  0
 10 11  1  0  0  0
 11  3  1  0  0  0
  3  1  1  0  0  0
  1  2  2  0  0  0
  1 12  1  0  0  0
 12 13  1  0  0  0
 13 14  1  0  0  0
 14 15  2  0  0  0
 14 16  1  0  0  0
 16 17  2  0  0  0
 17 18  1  0  0  0
 18 19  2  0  0  0
 18 20  1  0  0  0
M  END
> <minimizedAffinity>
-7.35706

$$$$
../data/cho_sim50/142110891.pdb


 18 18  0  0  0  0  0  0  0  0999 V2000
   69.3568   47.7829   53.3983 C   0  0  0  0  0  0  0  0  0  0  0  0
   69.6254   48.7093   54.3006 C   0  0  0  0  0  0  0  0  0  0  0  0
   69.2383   48.5843   55.6972 C   0  0  0  0  0  0  0  0  0  0  0  0
   68.5237   47.3570   56.0500 C   0  0  0  0  0  0  0  0  0  0  0  0
   69.2418   46.6977   57.0813 O   0  0  0  0  0  0  0  0  0  0  0  0
   68.2675   46.3853   54.9983 C   0  0  0  0  0  0  0  0  0  0  0  0
   68.6469   46.5680   53.7626 C   0  0  0  0  0  0  0  0  0  0  0  0
   69.8941   47.0251   51.2473 O   0  0  0  0  0  0  0  0  0  0  0  0
   69.7737   47.9816   52.0342 C   0  0  0  0  0  0  0  0  0  0  0  0
   70.0607   49.2530   51.5303 O   0  0  0  0  0  0  0  0  0  0  0  0
   68.4663   49.7644   56.0082 O   0  0  0  0  0  0  0  0  0  0  0  0
   69.0568   50.9940   56.1685 C   0  0  0  0  0  0  0  0  0  0  0  0
   68.6986   51.9880   55.3967 C   0  0  0  0  0  0  0  0  0  0  0  0
   69.2714   53.2122   55.5372 F   0  0  0  0  0  0  0  0  0  0  0  0
   67.7444   51.8332   54.4270 F   0  0  0  0  0  0  0  0  0  0  0  0
   70.0659   51.1892   57.1797 C   0  0  0  0  0  0  0  0  0  0  0  0
   69.7833   51.1148   58.4110 O   0  0  0  0  0  0  0  0  0  0  0  0
   71.3931   51.4666   56.8610 O   0  0  0  0  0  0  0  0  0  0  0  0
  8  9  2  0  0  0
  9 10  1  0  0  0
  9  1  1  0  0  0
  1  2  2  0  0  0
  1  7  1  0  0  0
  2  3  1  0  0  0
  3 11  1  0  0  0
  3  4  1  0  0  0
 11 12  1  0  0  0
 12 16  1  0  0  0
 12 13  2  0  0  0
 16 17  2  0  0  0
 16 18  1  0  0  0
 13 14  1  0  0  0
 13 15  1  0  0  0
  4  5  1  0  0  0
  4  6  1  0  0  0
  6  7  2  0  0  0
M  END
> <minimizedAffinity>
-7.10192

$$$$
../data/cho_sim50/144590668.pdb


 13 13  0  0  0  0  0  0  0  0999 V2000
   68.7883   47.4135   54.9319 C   0  0  0  0  0  0  0  0  0  0  0  0
   69.5961   48.3384   54.4728 C   0  0  0  0  0  0  0  0  0  0  0  0
   69.8520   48.5608   53.0704 C   0  0  0  0  0  0  0  0  0  0  0  0
   69.1410   47.6853   52.1252 C   0  0  0  0  0  0  0  0  0  0  0  0
   70.0154   46.9600   51.2878 O   0  0  0  0  0  0  0  0  0  0  0  0
   68.2588   46.6801   52.7275 C   0  0  0  0  0  0  0  0  0  0  0  0
   68.0821   46.5381   54.0127 C   0  0  0  0  0  0  0  0  0  0  0  0
   68.5893   47.2616   56.3953 C   0  0  0  0  0  0  0  0  0  0  0  0
   69.3805   46.5857   57.0679 O   0  0  0  0  0  0  0  0  0  0  0  0
   67.6729   49.1880   57.5111 C   0  0  0  0  0  0  0  0  0  0  0  0
   67.5221   47.8769   56.9911 O   0  0  0  0  0  0  0  0  0  0  0  0
   69.7489   49.9061   52.6942 O   0  0  0  0  0  0  0  0  0  0  0  0
   69.3376   50.7539   53.6769 C   0  0  0  0  0  0  0  0  0  0  0  0
 10 11  1  0  0  0
 11  8  1  0  0  0
  8  9  2  0  0  0
  8  1  1  0  0  0
  1  2  2  0  0  0
  1  7  1  0  0  0
  2  3  1  0  0  0
  3 12  1  0  0  0
  3  4  1  0  0  0
 12 13  1  0  0  0
  4  5  1  0  0  0
  4  6  1  0  0  0
  6  7  2  0  0  0
M  END
> <minimizedAffinity>
-5.88525

$$$$
../data/cho_sim50/146226013.pdb


 16 16  0  0  0  0  0  0  0  0999 V2000
   70.4463   51.6719   54.3674 C   0  0  0  0  0  0  0  0  0  0  0  0
   69.8875   52.5207   55.0868 O   0  0  0  0  0  0  0  0  0  0  0  0
   69.6678   50.5281   53.9035 C   0  0  0  0  0  0  0  0  0  0  0  0
   70.0672   49.2915   54.1258 C   0  0  0  0  0  0  0  0  0  0  0  0
   69.3431   48.1028   53.6938 C   0  0  0  0  0  0  0  0  0  0  0  0
   69.2628   47.8478   52.4029 C   0  0  0  0  0  0  0  0  0  0  0  0
   68.5859   46.7177   51.8074 C   0  0  0  0  0  0  0  0  0  0  0  0
   67.9348   45.7917   52.7422 C   0  0  0  0  0  0  0  0  0  0  0  0
   68.0618   46.1312   54.1530 C   0  0  0  0  0  0  0  0  0  0  0  0
   68.7002   47.1812   54.6019 C   0  0  0  0  0  0  0  0  0  0  0  0
   71.7546   51.8214   54.0286 O   0  0  0  0  0  0  0  0  0  0  0  0
   73.2683   53.4764   54.9648 C   0  0  0  0  0  0  0  0  0  0  0  0
   72.8145   52.0452   54.9217 C   0  0  0  0  0  0  0  0  0  0  0  0
   73.9974   51.2006   54.6198 C   0  0  0  0  0  0  0  0  0  0  0  0
   73.9063   50.3392   53.7249 O   0  0  0  0  0  0  0  0  0  0  0  0
   75.1542   51.4093   55.3474 O   0  0  0  0  0  0  0  0  0  0  0  0
 13 12  1  0  0  0
 13 11  1  0  0  0
 13 14  1  0  0  0
 11  1  1  0  0  0
  1  2  2  0  0  0
  1  3  1  0  0  0
  3  4  2  0  0  0
  4  5  1  0  0  0
  5  6  2  0  0  0
  5 10  1  0  0  0
  6  7  1  0  0  0
  7  8  1  0  0  0
  8  9  1  0  0  0
  9 10  2  0  0  0
 14 15  2  0  0  0
 14 16  1  0  0  0
M  END
> <minimizedAffinity>
-6.79735

$$$$
../data/cho_sim50/146226015.pdb


 16 16  0  0  0  0  0  0  0  0999 V2000
   70.5211   51.5897   54.3857 C   0  0  0  0  0  0  0  0  0  0  0  0
   69.9889   52.4900   55.0672 O   0  0  0  0  0  0  0  0  0  0  0  0
   69.7268   50.4508   53.9638 C   0  0  0  0  0  0  0  0  0  0  0  0
   70.1665   49.2113   54.0149 C   0  0  0  0  0  0  0  0  0  0  0  0
   69.4013   48.0570   53.6029 C   0  0  0  0  0  0  0  0  0  0  0  0
   68.8769   47.2787   54.5463 C   0  0  0  0  0  0  0  0  0  0  0  0
   68.0796   46.0774   54.2809 C   0  0  0  0  0  0  0  0  0  0  0  0
   67.8850   45.7726   52.8460 C   0  0  0  0  0  0  0  0  0  0  0  0
   68.4943   46.6772   51.8692 C   0  0  0  0  0  0  0  0  0  0  0  0
   69.1900   47.7248   52.2071 C   0  0  0  0  0  0  0  0  0  0  0  0
   71.8436   51.7075   54.0566 O   0  0  0  0  0  0  0  0  0  0  0  0
   73.3818   53.4906   54.6429 C   0  0  0  0  0  0  0  0  0  0  0  0
   72.8709   52.0934   54.9191 C   0  0  0  0  0  0  0  0  0  0  0  0
   74.0139   51.1612   54.7000 C   0  0  0  0  0  0  0  0  0  0  0  0
   73.9250   50.3620   53.7386 O   0  0  0  0  0  0  0  0  0  0  0  0
   75.1408   51.1612   55.5135 O   0  0  0  0  0  0  0  0  0  0  0  0
 13 12  1  0  0  0
 13 11  1  0  0  0
 13 14  1  0  0  0
 11  1  1  0  0  0
  1  2  2  0  0  0
  1  3  1  0  0  0
  3  4  2  0  0  0
  4  5  1  0  0  0
  5  6  2  0  0  0
  5 10  1  0  0  0
  6  7  1  0  0  0
  7  8  1  0  0  0
  8  9  1  0  0  0
  9 10  2  0  0  0
 14 15  2  0  0  0
 14 16  1  0  0  0
M  END
> <minimizedAffinity>
-6.75228

$$$$
../data/cho_sim50/150972446.pdb


 12 12  0  0  0  0  0  0  0  0999 V2000
   68.5097   46.6015   53.9440 C   0  0  0  0  0  0  0  0  0  0  0  0
   69.4047   47.5053   53.6249 C   0  0  0  0  0  0  0  0  0  0  0  0
   69.7035   47.9527   52.2441 C   0  0  0  0  0  0  0  0  0  0  0  0
   68.9003   47.2812   51.3000 O   0  0  0  0  0  0  0  0  0  0  0  0
   67.9580   46.3312   51.6287 C   0  0  0  0  0  0  0  0  0  0  0  0
   67.7382   45.9751   52.8839 C   0  0  0  0  0  0  0  0  0  0  0  0
   67.9624   47.0680   56.2048 O   0  0  0  0  0  0  0  0  0  0  0  0
   68.2642   46.2042   55.3456 C   0  0  0  0  0  0  0  0  0  0  0  0
   68.3551   44.8854   55.7569 O   0  0  0  0  0  0  0  0  0  0  0  0
   69.4873   49.4430   52.1599 C   0  0  0  0  0  0  0  0  0  0  0  0
   69.1798   50.0639   53.2096 O   0  0  0  0  0  0  0  0  0  0  0  0
   69.6222   50.1201   50.9633 O   0  0  0  0  0  0  0  0  0  0  0  0
  7  8  2  0  0  0
  8  9  1  0  0  0
  8  1  1  0  0  0
  1  2  2  0  0  0
  1  6  1  0  0  0
  2  3  1  0  0  0
  3 10  1  0  0  0
  3  4  1  0  0  0
 10 11  2  0  0  0
 10 12  1  0  0  0
  4  5  1  0  0  0
  5  6  2  0  0  0
M  END
> <minimizedAffinity>
-6.19875

$$$$
../data/cho_sim50/152762477.pdb


 16 16  0  0  0  0  0  0  0  0999 V2000
   69.2422   49.0973   55.5432 C   0  0  0  0  0  0  0  0  0  0  0  0
   69.6120   49.0301   54.1307 C   0  0  0  0  0  0  0  0  0  0  0  0
   69.4274   47.9915   53.3481 C   0  0  0  0  0  0  0  0  0  0  0  0
   68.7990   46.7959   53.8988 C   0  0  0  0  0  0  0  0  0  0  0  0
   68.4318   46.7732   55.1493 C   0  0  0  0  0  0  0  0  0  0  0  0
   68.6062   47.8869   56.0679 C   0  0  0  0  0  0  0  0  0  0  0  0
   69.2799   47.4148   57.3758 C   0  0  0  0  0  0  0  0  0  0  0  0
   69.8172   47.9799   51.9464 C   0  0  0  0  0  0  0  0  0  0  0  0
   69.8537   46.8870   51.3386 O   0  0  0  0  0  0  0  0  0  0  0  0
   70.1527   49.1326   51.2515 O   0  0  0  0  0  0  0  0  0  0  0  0
   68.4006   50.2312   55.8050 O   0  0  0  0  0  0  0  0  0  0  0  0
   67.0862   50.9821   57.6147 C   0  0  0  0  0  0  0  0  0  0  0  0
   68.2725   50.7778   57.0675 C   0  0  0  0  0  0  0  0  0  0  0  0
   69.4886   51.1260   57.7841 C   0  0  0  0  0  0  0  0  0  0  0  0
   69.6648   50.6259   58.9291 O   0  0  0  0  0  0  0  0  0  0  0  0
   70.4406   51.9798   57.2432 O   0  0  0  0  0  0  0  0  0  0  0  0
 12 13  2  0  0  0
 13 11  1  0  0  0
 13 14  1  0  0  0
  1 11  1  0  0  0
  1  2  1  0  0  0
  1  6  1  0  0  0
  2  3  2  0  0  0
  3  8  1  0  0  0
  3  4  1  0  0  0
  8  9  2  0  0  0
  8 10  1  0  0  0
  4  5  2  0  0  0
  5  6  1  0  0  0
  6  7  1  0  0  0
 14 15  2  0  0  0
 14 16  1  0  0  0
M  END
> <minimizedAffinity>
-6.59235

$$$$
../data/cho_sim50/152762478.pdb


 15 15  0  0  0  0  0  0  0  0999 V2000
   68.7169   46.4863   54.8917 C   0  0  0  0  0  0  0  0  0  0  0  0
   69.3156   47.5440   54.1319 C   0  0  0  0  0  0  0  0  0  0  0  0
   69.1895   47.6630   52.8383 C   0  0  0  0  0  0  0  0  0  0  0  0
   68.4115   46.6900   52.0822 C   0  0  0  0  0  0  0  0  0  0  0  0
   67.8348   45.6881   52.7103 C   0  0  0  0  0  0  0  0  0  0  0  0
   67.9320   45.4923   54.1499 C   0  0  0  0  0  0  0  0  0  0  0  0
   69.8126   48.7546   52.0894 C   0  0  0  0  0  0  0  0  0  0  0  0
   70.5155   48.5299   51.0743 O   0  0  0  0  0  0  0  0  0  0  0  0
   69.6578   50.0891   52.4638 O   0  0  0  0  0  0  0  0  0  0  0  0
   68.0791   46.9158   56.0870 O   0  0  0  0  0  0  0  0  0  0  0  0
   67.9042   48.8620   57.3355 C   0  0  0  0  0  0  0  0  0  0  0  0
   68.5336   47.7581   57.0341 C   0  0  0  0  0  0  0  0  0  0  0  0
   69.7579   47.4438   57.7481 C   0  0  0  0  0  0  0  0  0  0  0  0
   70.7412   48.1998   57.7078 O   0  0  0  0  0  0  0  0  0  0  0  0
   69.8896   46.2727   58.5175 O   0  0  0  0  0  0  0  0  0  0  0  0
 11 12  2  0  0  0
 12 10  1  0  0  0
 12 13  1  0  0  0
  1 10  1  0  0  0
  1  2  1  0  0  0
  1  6  1  0  0  0
  2  3  2  0  0  0
  3  7  1  0  0  0
  3  4  1  0  0  0
  7  8  2  0  0  0
  7  9  1  0  0  0
  4  5  2  0  0  0
  5  6  1  0  0  0
 13 14  2  0  0  0
 13 15  1  0  0  0
M  END
> <minimizedAffinity>
-6.54237

$$$$
../data/cho_sim50/154496778.pdb


 16 16  0  0  0  0  0  0  0  0999 V2000
   71.0837   51.8427   55.2464 C   0  0  0  0  0  0  0  0  0  0  0  0
   69.8804   52.7559   55.3376 C   0  0  0  0  0  0  0  0  0  0  0  0
   68.6156   51.9549   55.3297 C   0  0  0  0  0  0  0  0  0  0  0  0
   68.5320   50.9998   54.4158 C   0  0  0  0  0  0  0  0  0  0  0  0
   69.6401   50.7476   53.4550 C   0  0  0  0  0  0  0  0  0  0  0  0
   70.8939   50.7767   54.2427 C   0  0  0  0  0  0  0  0  0  0  0  0
   71.7325   49.9336   54.0512 O   0  0  0  0  0  0  0  0  0  0  0  0
   69.4970   49.4235   52.7987 C   0  0  0  0  0  0  0  0  0  0  0  0
   68.9394   48.4953   53.4258 O   0  0  0  0  0  0  0  0  0  0  0  0
   69.9797   49.2404   51.5155 O   0  0  0  0  0  0  0  0  0  0  0  0
   72.1985   52.6824   54.9029 O   0  0  0  0  0  0  0  0  0  0  0  0
   73.1443   53.0642   55.8405 C   0  0  0  0  0  0  0  0  0  0  0  0
   73.5883   52.1592   56.5898 O   0  0  0  0  0  0  0  0  0  0  0  0
   73.2866   55.2979   55.0686 O   0  0  0  0  0  0  0  0  0  0  0  0
   73.5948   54.4547   55.9454 C   0  0  0  0  0  0  0  0  0  0  0  0
   74.3715   54.8875   57.0062 O   0  0  0  0  0  0  0  0  0  0  0  0
 14 15  2  0  0  0
 15 16  1  0  0  0
 15 12  1  0  0  0
 12 13  2  0  0  0
 12 11  1  0  0  0
  1 11  1  0  0  0
  1  2  1  0  0  0
  1  6  1  0  0  0
  2  3  1  0  0  0
  3  4  2  0  0  0
  4  5  1  0  0  0
  5  8  1  0  0  0
  5  6  1  0  0  0
  8  9  2  0  0  0
  8 10  1  0  0  0
  6  7  2  0  0  0
M  END
> <minimizedAffinity>
-6.21615

$$$$
../data/cho_sim50/156542946.pdb


 13 13  0  0  0  0  0  0  0  0999 V2000
   69.3303   48.8209   55.7622 C   0  0  0  0  0  0  0  0  0  0  0  0
   69.6820   48.8301   54.3395 C   0  0  0  0  0  0  0  0  0  0  0  0
   69.3091   47.9685   53.4367 C   0  0  0  0  0  0  0  0  0  0  0  0
   68.4525   46.8624   53.8359 C   0  0  0  0  0  0  0  0  0  0  0  0
   68.0868   46.7721   55.0877 C   0  0  0  0  0  0  0  0  0  0  0  0
   68.4565   47.6943   56.1759 C   0  0  0  0  0  0  0  0  0  0  0  0
   69.0376   46.9167   57.1973 O   0  0  0  0  0  0  0  0  0  0  0  0
   69.7516   48.1176   52.0388 C   0  0  0  0  0  0  0  0  0  0  0  0
   69.9043   47.0747   51.3504 O   0  0  0  0  0  0  0  0  0  0  0  0
   69.9771   49.3720   51.5414 O   0  0  0  0  0  0  0  0  0  0  0  0
   68.6781   50.0508   56.0564 O   0  0  0  0  0  0  0  0  0  0  0  0
   67.0587   50.9860   57.4270 C   0  0  0  0  0  0  0  0  0  0  0  0
   68.1653   50.2841   57.3129 C   0  0  0  0  0  0  0  0  0  0  0  0
 12 13  2  0  0  0
 13 11  1  0  0  0
  1 11  1  0  0  0
  1  2  1  0  0  0
  1  6  1  0  0  0
  2  3  2  0  0  0
  3  8  1  0  0  0
  3  4  1  0  0  0
  8  9  2  0  0  0
  8 10  1  0  0  0
  4  5  2  0  0  0
  5  6  1  0  0  0
  6  7  1  0  0  0
M  END
> <minimizedAffinity>
-6.28139

$$$$
../data/cho_sim50/162821403.pdb


 16 16  0  0  0  0  0  0  0  0999 V2000
   70.6287   50.2920   54.2946 C   0  0  0  0  0  0  0  0  0  0  0  0
   69.7235   49.7628   55.3779 C   0  0  0  0  0  0  0  0  0  0  0  0
   70.4926   49.1551   56.5014 C   0  0  0  0  0  0  0  0  0  0  0  0
   71.7110   49.5130   56.8255 C   0  0  0  0  0  0  0  0  0  0  0  0
   72.4931   50.5739   56.1174 C   0  0  0  0  0  0  0  0  0  0  0  0
   71.8320   50.9707   54.8460 C   0  0  0  0  0  0  0  0  0  0  0  0
   72.3525   51.9250   54.2562 O   0  0  0  0  0  0  0  0  0  0  0  0
   72.6439   51.7355   57.0371 C   0  0  0  0  0  0  0  0  0  0  0  0
   73.7738   52.1117   57.4549 O   0  0  0  0  0  0  0  0  0  0  0  0
   71.4781   52.4143   57.4354 O   0  0  0  0  0  0  0  0  0  0  0  0
   70.9527   49.3146   53.3301 O   0  0  0  0  0  0  0  0  0  0  0  0
   70.1242   48.8547   52.3550 C   0  0  0  0  0  0  0  0  0  0  0  0
   69.8126   49.6249   51.4129 O   0  0  0  0  0  0  0  0  0  0  0  0
   69.5345   46.8439   51.2372 O   0  0  0  0  0  0  0  0  0  0  0  0
   69.5603   47.5103   52.3199 C   0  0  0  0  0  0  0  0  0  0  0  0
   69.0318   46.8914   53.4381 O   0  0  0  0  0  0  0  0  0  0  0  0
 14 15  2  0  0  0
 15 16  1  0  0  0
 15 12  1  0  0  0
 12 13  2  0  0  0
 12 11  1  0  0  0
  1 11  1  0  0  0
  1  2  1  0  0  0
  1  6  1  0  0  0
  2  3  1  0  0  0
  3  4  2  0  0  0
  4  5  1  0  0  0
  5  8  1  0  0  0
  5  6  1  0  0  0
  8  9  2  0  0  0
  8 10  1  0  0  0
  6  7  2  0  0  0
M  END
> <minimizedAffinity>
-6.17062

$$$$
../data/cho_sim50/164132417.pdb


 17 17  0  0  0  0  0  0  0  0999 V2000
   70.7935   49.8875   55.4425 C   0  0  0  0  0  0  0  0  0  0  0  0
   70.6799   49.6881   54.0138 C   0  0  0  0  0  0  0  0  0  0  0  0
   69.9580   48.7503   53.4512 C   0  0  0  0  0  0  0  0  0  0  0  0
   69.2006   47.8077   54.2789 C   0  0  0  0  0  0  0  0  0  0  0  0
   68.0263   46.2856   53.4177 I   0  0  0  0  0  0  0  0  0  0  0  0
   69.2542   47.9127   55.5878 C   0  0  0  0  0  0  0  0  0  0  0  0
   70.0390   48.9315   56.2738 C   0  0  0  0  0  0  0  0  0  0  0  0
   69.2332   49.6912   57.1568 O   0  0  0  0  0  0  0  0  0  0  0  0
   69.8897   48.6061   51.9898 C   0  0  0  0  0  0  0  0  0  0  0  0
   69.6395   49.6218   51.3072 O   0  0  0  0  0  0  0  0  0  0  0  0
   70.0889   47.4062   51.3312 O   0  0  0  0  0  0  0  0  0  0  0  0
   72.1622   49.8619   55.8775 O   0  0  0  0  0  0  0  0  0  0  0  0
   72.7834   51.8385   56.9076 C   0  0  0  0  0  0  0  0  0  0  0  0
   72.9523   50.9730   55.9359 C   0  0  0  0  0  0  0  0  0  0  0  0
   73.9722   51.1989   54.9351 C   0  0  0  0  0  0  0  0  0  0  0  0
   74.0658   50.5146   53.8772 O   0  0  0  0  0  0  0  0  0  0  0  0
   74.9214   52.2131   55.1059 O   0  0  0  0  0  0  0  0  0  0  0  0
 13 14  2  0  0  0
 14 12  1  0  0  0
 14 15  1  0  0  0
  1 12  1  0  0  0
  1  2  1  0  0  0
  1  7  1  0  0  0
  2  3  2  0  0  0
  3  9  1  0  0  0
  3  4  1  0  0  0
  9 10  2  0  0  0
  9 11  1  0  0  0
  4  5  1  0  0  0
  4  6  2  0  0  0
  6  7  1  0  0  0
  7  8  1  0  0  0
 15 16  2  0  0  0
 15 17  1  0  0  0
M  END
> <minimizedAffinity>
-7.04865

$$$$
