../data/cho_sim50/306.pdb


 16 16  0  0  0  0  0  0  0  0999 V2000
   69.5927   48.7904   54.9555 C   0  0  0  0  0  0  0  0  0  0  0  0
   68.8640   47.5208   54.8503 C   0  0  0  0  0  0  0  0  0  0  0  0
   68.6510   46.8645   53.7249 C   0  0  0  0  0  0  0  0  0  0  0  0
   69.1592   47.4181   52.4825 C   0  0  0  0  0  0  0  0  0  0  0  0
   69.8140   48.5493   52.5050 C   0  0  0  0  0  0  0  0  0  0  0  0
   70.0846   49.3248   53.7008 C   0  0  0  0  0  0  0  0  0  0  0  0
   71.4549   49.6885   53.7425 O   0  0  0  0  0  0  0  0  0  0  0  0
   67.9206   45.6110   53.6943 C   0  0  0  0  0  0  0  0  0  0  0  0
   67.9193   44.8493   54.6817 O   0  0  0  0  0  0  0  0  0  0  0  0
   67.2250   45.2689   52.5559 O   0  0  0  0  0  0  0  0  0  0  0  0
   68.8146   49.7745   55.6487 O   0  0  0  0  0  0  0  0  0  0  0  0
   69.6722   49.9655   57.8288 C   0  0  0  0  0  0  0  0  0  0  0  0
   68.6538   49.7534   57.0200 C   0  0  0  0  0  0  0  0  0  0  0  0
   67.3429   49.4942   57.5933 C   0  0  0  0  0  0  0  0  0  0  0  0
   66.6236   50.4536   58.0250 O   0  0  0  0  0  0  0  0  0  0  0  0
   66.8064   48.2316   57.7043 O   0  0  0  0  0  0  0  0  0  0  0  0
 12 13  2  0  0  0
 13 11  1  0  0  0
 13 14  1  0  0  0
  1 11  1  0  0  0
  1  2  1  0  0  0
  1  6  1  0  0  0
  2  3  2  0  0  0
  3  8  1  0  0  0
  3  4  1  0  0  0
  8  9  2  0  0  0
  8 10  1  0  0  0
  4  5  2  0  0  0
  5  6  1  0  0  0
  6  7  1  0  0  0
 14 15  2  0  0  0
 14 16  1  0  0  0
M  END
> <minimizedAffinity>
-6.72578

$$$$
../data/cho_sim50/12039.pdb


 16 16  0  0  0  0  0  0  0  0999 V2000
   69.1597   48.9709   55.6585 C   0  0  0  0  0  0  0  0  0  0  0  0
   69.6036   48.8991   54.2688 C   0  0  0  0  0  0  0  0  0  0  0  0
   69.3562   47.9076   53.4489 C   0  0  0  0  0  0  0  0  0  0  0  0
   68.5741   46.7695   53.9397 C   0  0  0  0  0  0  0  0  0  0  0  0
   68.1496   46.7714   55.1647 C   0  0  0  0  0  0  0  0  0  0  0  0
   68.3742   47.8234   56.1397 C   0  0  0  0  0  0  0  0  0  0  0  0
   68.9649   47.2697   57.2984 O   0  0  0  0  0  0  0  0  0  0  0  0
   69.8371   47.9108   52.0688 C   0  0  0  0  0  0  0  0  0  0  0  0
   69.8944   46.8669   51.3810 O   0  0  0  0  0  0  0  0  0  0  0  0
   70.2469   49.0966   51.4851 O   0  0  0  0  0  0  0  0  0  0  0  0
   68.3958   50.1880   55.8208 O   0  0  0  0  0  0  0  0  0  0  0  0
   67.1179   50.9562   57.6011 C   0  0  0  0  0  0  0  0  0  0  0  0
   68.3040   50.7029   57.0959 C   0  0  0  0  0  0  0  0  0  0  0  0
   69.5189   50.9517   57.8465 C   0  0  0  0  0  0  0  0  0  0  0  0
   69.6824   50.3752   58.9538 O   0  0  0  0  0  0  0  0  0  0  0  0
   70.5141   51.8039   57.3911 O   0  0  0  0  0  0  0  0  0  0  0  0
 12 13  2  0  0  0
 13 11  1  0  0  0
 13 14  1  0  0  0
  1 11  1  0  0  0
  1  2  1  0  0  0
  1  6  1  0  0  0
  2  3  2  0  0  0
  3  8  1  0  0  0
  3  4  1  0  0  0
  8  9  2  0  0  0
  8 10  1  0  0  0
  4  5  2  0  0  0
  5  6  1  0  0  0
  6  7  1  0  0  0
 14 15  2  0  0  0
 14 16  1  0  0  0
M  END
> <minimizedAffinity>
-6.69684

$$$$
../data/cho_sim50/12039.pdb


 16 16  0  0  0  0  0  0  0  0999 V2000
   70.1110   49.3028   53.5226 C   0  0  0  0  0  0  0  0  0  0  0  0
   69.4251   48.3903   54.4667 C   0  0  0  0  0  0  0  0  0  0  0  0
   68.9244   47.2206   54.1915 C   0  0  0  0  0  0  0  0  0  0  0  0
   69.0396   46.7412   52.8255 C   0  0  0  0  0  0  0  0  0  0  0  0
   69.6324   47.4811   51.9168 C   0  0  0  0  0  0  0  0  0  0  0  0
   70.2267   48.8150   52.1393 C   0  0  0  0  0  0  0  0  0  0  0  0
   69.5905   49.6916   51.2356 O   0  0  0  0  0  0  0  0  0  0  0  0
   68.2741   46.4320   55.2371 C   0  0  0  0  0  0  0  0  0  0  0  0
   67.9787   47.0136   56.3058 O   0  0  0  0  0  0  0  0  0  0  0  0
   68.0165   45.0952   55.0070 O   0  0  0  0  0  0  0  0  0  0  0  0
   71.3589   49.6032   54.1292 O   0  0  0  0  0  0  0  0  0  0  0  0
   70.7709   51.7605   54.6896 C   0  0  0  0  0  0  0  0  0  0  0  0
   71.7301   50.8714   54.5269 C   0  0  0  0  0  0  0  0  0  0  0  0
   73.1011   51.2449   54.7635 C   0  0  0  0  0  0  0  0  0  0  0  0
   73.4881   52.0688   55.6016 O   0  0  0  0  0  0  0  0  0  0  0  0
   74.0931   50.6264   53.9802 O   0  0  0  0  0  0  0  0  0  0  0  0
 12 13  2  0  0  0
 13 11  1  0  0  0
 13 14  1  0  0  0
  1 11  1  0  0  0
  1  2  1  0  0  0
  1  6  1  0  0  0
  2  3  2  0  0  0
  3  8  1  0  0  0
  3  4  1  0  0  0
  8  9  2  0  0  0
  8 10  1  0  0  0
  4  5  2  0  0  0
  5  6  1  0  0  0
  6  7  1  0  0  0
 14 15  2  0  0  0
 14 16  1  0  0  0
M  END
> <minimizedAffinity>
-6.86942

$$$$
../data/cho_sim50/5460312.pdb


 16 16  0  0  0  0  0  0  0  0999 V2000
   70.1361   49.3016   53.5522 C   0  0  0  0  0  0  0  0  0  0  0  0
   69.4735   48.4526   54.5159 C   0  0  0  0  0  0  0  0  0  0  0  0
   68.9487   47.2736   54.2474 C   0  0  0  0  0  0  0  0  0  0  0  0
   69.0158   46.7631   52.8915 C   0  0  0  0  0  0  0  0  0  0  0  0
   69.5934   47.4777   51.9613 C   0  0  0  0  0  0  0  0  0  0  0  0
   70.1911   48.7803   52.1791 C   0  0  0  0  0  0  0  0  0  0  0  0
   69.6265   49.7084   51.2550 O   0  0  0  0  0  0  0  0  0  0  0  0
   68.2962   46.4805   55.2851 C   0  0  0  0  0  0  0  0  0  0  0  0
   67.9517   47.0310   56.3734 O   0  0  0  0  0  0  0  0  0  0  0  0
   68.0513   45.1354   55.0924 O   0  0  0  0  0  0  0  0  0  0  0  0
   71.4544   49.6775   53.9746 O   0  0  0  0  0  0  0  0  0  0  0  0
   70.8653   51.7334   54.8968 C   0  0  0  0  0  0  0  0  0  0  0  0
   71.7958   50.8720   54.5304 C   0  0  0  0  0  0  0  0  0  0  0  0
   73.2003   51.1980   54.7221 C   0  0  0  0  0  0  0  0  0  0  0  0
   74.1008   50.6257   54.0282 O   0  0  0  0  0  0  0  0  0  0  0  0
   73.5542   52.1368   55.6648 O   0  0  0  0  0  0  0  0  0  0  0  0
 12 13  2  0  0  0
 13 11  1  0  0  0
 13 14  1  0  0  0
  1 11  1  0  0  0
  1  2  1  0  0  0
  1  6  1  0  0  0
  2  3  2  0  0  0
  3  8  1  0  0  0
  3  4  1  0  0  0
  8  9  2  0  0  0
  8 10  1  0  0  0
  4  5  2  0  0  0
  5  6  1  0  0  0
  6  7  1  0  0  0
 14 15  2  0  0  0
 14 16  1  0  0  0
M  END
> <minimizedAffinity>
-6.95113

$$$$
../data/cho_sim50/5460312.pdb


 16 16  0  0  0  0  0  0  0  0999 V2000
   70.0866   49.2412   53.5519 C   0  0  0  0  0  0  0  0  0  0  0  0
   69.4414   48.3720   54.5036 C   0  0  0  0  0  0  0  0  0  0  0  0
   68.9318   47.2180   54.2110 C   0  0  0  0  0  0  0  0  0  0  0  0
   69.0073   46.7160   52.8190 C   0  0  0  0  0  0  0  0  0  0  0  0
   69.5869   47.4461   51.9127 C   0  0  0  0  0  0  0  0  0  0  0  0
   70.1771   48.7403   52.1718 C   0  0  0  0  0  0  0  0  0  0  0  0
   69.6353   49.6666   51.2347 O   0  0  0  0  0  0  0  0  0  0  0  0
   68.2916   46.3881   55.2233 C   0  0  0  0  0  0  0  0  0  0  0  0
   67.9792   46.8932   56.3235 O   0  0  0  0  0  0  0  0  0  0  0  0
   68.0191   45.0623   55.0060 O   0  0  0  0  0  0  0  0  0  0  0  0
   71.3922   49.6342   53.9589 O   0  0  0  0  0  0  0  0  0  0  0  0
   70.8359   51.7101   54.7599 C   0  0  0  0  0  0  0  0  0  0  0  0
   71.7765   50.8323   54.4661 C   0  0  0  0  0  0  0  0  0  0  0  0
   73.1855   51.2107   54.7060 C   0  0  0  0  0  0  0  0  0  0  0  0
   74.1417   50.7032   54.0697 O   0  0  0  0  0  0  0  0  0  0  0  0
   73.5126   52.1598   55.6644 O   0  0  0  0  0  0  0  0  0  0  0  0
 12 13  2  0  0  0
 13 11  1  0  0  0
 13 14  1  0  0  0
  1 11  1  0  0  0
  1  2  1  0  0  0
  1  6  1  0  0  0
  2  3  2  0  0  0
  3  8  1  0  0  0
  3  4  1  0  0  0
  8  9  2  0  0  0
  8 10  1  0  0  0
  4  5  2  0  0  0
  5  6  1  0  0  0
  6  7  1  0  0  0
 14 15  2  0  0  0
 14 16  1  0  0  0
M  END
> <minimizedAffinity>
-6.90582

$$$$
../data/cho_sim50/10680903.pdb


 16 16  0  0  0  0  0  0  0  0999 V2000
   70.1808   49.2378   53.5217 C   0  0  0  0  0  0  0  0  0  0  0  0
   69.5682   48.4150   54.5404 C   0  0  0  0  0  0  0  0  0  0  0  0
   68.9588   47.2904   54.3149 C   0  0  0  0  0  0  0  0  0  0  0  0
   68.8867   46.8026   52.9295 C   0  0  0  0  0  0  0  0  0  0  0  0
   69.4211   47.4826   51.9601 C   0  0  0  0  0  0  0  0  0  0  0  0
   70.1110   48.7338   52.1440 C   0  0  0  0  0  0  0  0  0  0  0  0
   69.6570   49.7283   51.2361 O   0  0  0  0  0  0  0  0  0  0  0  0
   68.3463   46.4829   55.3915 C   0  0  0  0  0  0  0  0  0  0  0  0
   68.0490   46.9713   56.4921 O   0  0  0  0  0  0  0  0  0  0  0  0
   68.0895   45.1370   55.1810 O   0  0  0  0  0  0  0  0  0  0  0  0
   71.5193   49.6203   53.8868 O   0  0  0  0  0  0  0  0  0  0  0  0
   70.6897   51.7034   54.7242 C   0  0  0  0  0  0  0  0  0  0  0  0
   71.6840   50.8764   54.4430 C   0  0  0  0  0  0  0  0  0  0  0  0
   73.0406   51.3095   54.7352 C   0  0  0  0  0  0  0  0  0  0  0  0
   73.2413   52.2077   55.5673 O   0  0  0  0  0  0  0  0  0  0  0  0
   74.1037   50.7178   54.0865 O   0  0  0  0  0  0  0  0  0  0  0  0
 12 13  2  0  0  0
 13 11  1  0  0  0
 13 14  1  0  0  0
  1 11  1  0  0  0
  1  2  1  0  0  0
  1  6  1  0  0  0
  2  3  2  0  0  0
  3  8  1  0  0  0
  3  4  1  0  0  0
  8  9  2  0  0  0
  8 10  1  0  0  0
  4  5  2  0  0  0
  5  6  1  0  0  0
  6  7  1  0  0  0
 14 15  2  0  0  0
 14 16  1  0  0  0
M  END
> <minimizedAffinity>
-6.92807

$$$$
../data/cho_sim50/10680903.pdb


 16 16  0  0  0  0  0  0  0  0999 V2000
   70.1481   49.4635   53.5924 C   0  0  0  0  0  0  0  0  0  0  0  0
   69.4530   48.6575   54.5937 C   0  0  0  0  0  0  0  0  0  0  0  0
   68.8754   47.4939   54.4281 C   0  0  0  0  0  0  0  0  0  0  0  0
   68.9268   46.9258   53.0839 C   0  0  0  0  0  0  0  0  0  0  0  0
   69.5227   47.5579   52.1065 C   0  0  0  0  0  0  0  0  0  0  0  0
   70.1800   48.8570   52.2486 C   0  0  0  0  0  0  0  0  0  0  0  0
   69.5946   49.7030   51.2802 O   0  0  0  0  0  0  0  0  0  0  0  0
   68.2060   46.7690   55.4967 C   0  0  0  0  0  0  0  0  0  0  0  0
   67.6281   47.4009   56.4025 O   0  0  0  0  0  0  0  0  0  0  0  0
   68.1944   45.3921   55.5343 O   0  0  0  0  0  0  0  0  0  0  0  0
   71.4863   49.6935   54.0391 O   0  0  0  0  0  0  0  0  0  0  0  0
   71.0400   51.7834   55.0779 C   0  0  0  0  0  0  0  0  0  0  0  0
   71.8722   50.8693   54.6556 C   0  0  0  0  0  0  0  0  0  0  0  0
   73.3053   51.0812   54.8354 C   0  0  0  0  0  0  0  0  0  0  0  0
   74.1546   50.5898   54.0274 O   0  0  0  0  0  0  0  0  0  0  0  0
   73.8362   51.8219   55.8843 O   0  0  0  0  0  0  0  0  0  0  0  0
 12 13  2  0  0  0
 13 11  1  0  0  0
 13 14  1  0  0  0
  1 11  1  0  0  0
  1  2  1  0  0  0
  1  6  1  0  0  0
  2  3  2  0  0  0
  3  8  1  0  0  0
  3  4  1  0  0  0
  8  9  2  0  0  0
  8 10  1  0  0  0
  4  5  2  0  0  0
  5  6  1  0  0  0
  6  7  1  0  0  0
 14 15  2  0  0  0
 14 16  1  0  0  0
M  END
> <minimizedAffinity>
-6.97195

$$$$
../data/cho_sim50/10680903.pdb


 16 16  0  0  0  0  0  0  0  0999 V2000
   70.1547   49.2595   53.5244 C   0  0  0  0  0  0  0  0  0  0  0  0
   69.5245   48.4068   54.5200 C   0  0  0  0  0  0  0  0  0  0  0  0
   68.9221   47.2595   54.3009 C   0  0  0  0  0  0  0  0  0  0  0  0
   68.9018   46.8165   52.9120 C   0  0  0  0  0  0  0  0  0  0  0  0
   69.4396   47.5004   51.9453 C   0  0  0  0  0  0  0  0  0  0  0  0
   70.1134   48.7668   52.1437 C   0  0  0  0  0  0  0  0  0  0  0  0
   69.6516   49.7512   51.2330 O   0  0  0  0  0  0  0  0  0  0  0  0
   68.3120   46.4633   55.3627 C   0  0  0  0  0  0  0  0  0  0  0  0
   68.0086   46.9925   56.4474 O   0  0  0  0  0  0  0  0  0  0  0  0
   68.0649   45.1126   55.1743 O   0  0  0  0  0  0  0  0  0  0  0  0
   71.4961   49.5949   53.9329 O   0  0  0  0  0  0  0  0  0  0  0  0
   70.6331   51.6572   54.5491 C   0  0  0  0  0  0  0  0  0  0  0  0
   71.6928   50.8902   54.3756 C   0  0  0  0  0  0  0  0  0  0  0  0
   73.0492   51.4089   54.6481 C   0  0  0  0  0  0  0  0  0  0  0  0
   74.0253   50.8420   54.1009 O   0  0  0  0  0  0  0  0  0  0  0  0
   73.2602   52.4884   55.4786 O   0  0  0  0  0  0  0  0  0  0  0  0
 12 13  2  0  0  0
 13 11  1  0  0  0
 13 14  1  0  0  0
  1 11  1  0  0  0
  1  2  1  0  0  0
  1  6  1  0  0  0
  2  3  2  0  0  0
  3  8  1  0  0  0
  3  4  1  0  0  0
  8  9  2  0  0  0
  8 10  1  0  0  0
  4  5  2  0  0  0
  5  6  1  0  0  0
  6  7  1  0  0  0
 14 15  2  0  0  0
 14 16  1  0  0  0
M  END
> <minimizedAffinity>
-6.80132

$$$$
../data/cho_sim50/10751803.pdb


 16 16  0  0  0  0  0  0  0  0999 V2000
   70.1127   49.2336   53.5434 C   0  0  0  0  0  0  0  0  0  0  0  0
   69.4856   48.3670   54.5214 C   0  0  0  0  0  0  0  0  0  0  0  0
   68.9379   47.2152   54.2336 C   0  0  0  0  0  0  0  0  0  0  0  0
   68.9495   46.7360   52.8558 C   0  0  0  0  0  0  0  0  0  0  0  0
   69.5066   47.4556   51.9146 C   0  0  0  0  0  0  0  0  0  0  0  0
   70.1347   48.7460   52.1709 C   0  0  0  0  0  0  0  0  0  0  0  0
   69.6447   49.7259   51.2530 O   0  0  0  0  0  0  0  0  0  0  0  0
   68.3150   46.3834   55.2841 C   0  0  0  0  0  0  0  0  0  0  0  0
   68.0384   46.9047   56.3908 O   0  0  0  0  0  0  0  0  0  0  0  0
   68.0501   45.0572   55.0336 O   0  0  0  0  0  0  0  0  0  0  0  0
   71.4618   49.5645   53.9325 O   0  0  0  0  0  0  0  0  0  0  0  0
   70.6462   51.6535   54.6514 C   0  0  0  0  0  0  0  0  0  0  0  0
   71.6691   50.8442   54.4213 C   0  0  0  0  0  0  0  0  0  0  0  0
   73.0224   51.3090   54.6869 C   0  0  0  0  0  0  0  0  0  0  0  0
   73.2240   52.2684   55.4788 O   0  0  0  0  0  0  0  0  0  0  0  0
   74.1084   50.7204   54.0854 O   0  0  0  0  0  0  0  0  0  0  0  0
 12 13  2  0  0  0
 13 11  1  0  0  0
 13 14  1  0  0  0
  1 11  1  0  0  0
  1  2  1  0  0  0
  1  6  1  0  0  0
  2  3  2  0  0  0
  3  8  1  0  0  0
  3  4  1  0  0  0
  8  9  2  0  0  0
  8 10  1  0  0  0
  4  5  2  0  0  0
  5  6  1  0  0  0
  6  7  1  0  0  0
 14 15  2  0  0  0
 14 16  1  0  0  0
M  END
> <minimizedAffinity>
-6.89207

$$$$
../data/cho_sim50/10751803.pdb


 16 16  0  0  0  0  0  0  0  0999 V2000
   69.2396   48.8278   55.7171 C   0  0  0  0  0  0  0  0  0  0  0  0
   69.6633   48.7865   54.3267 C   0  0  0  0  0  0  0  0  0  0  0  0
   69.3623   47.8675   53.4463 C   0  0  0  0  0  0  0  0  0  0  0  0
   68.5181   46.7722   53.9269 C   0  0  0  0  0  0  0  0  0  0  0  0
   68.0915   46.7110   55.1529 C   0  0  0  0  0  0  0  0  0  0  0  0
   68.4021   47.7061   56.1593 C   0  0  0  0  0  0  0  0  0  0  0  0
   69.1737   47.0074   57.1534 O   0  0  0  0  0  0  0  0  0  0  0  0
   69.8282   47.8967   52.0605 C   0  0  0  0  0  0  0  0  0  0  0  0
   69.8879   46.8838   51.3273 O   0  0  0  0  0  0  0  0  0  0  0  0
   70.2297   49.1023   51.5094 O   0  0  0  0  0  0  0  0  0  0  0  0
   68.4304   50.0273   55.8553 O   0  0  0  0  0  0  0  0  0  0  0  0
   67.1282   51.0162   57.5767 C   0  0  0  0  0  0  0  0  0  0  0  0
   68.2980   50.6579   57.0804 C   0  0  0  0  0  0  0  0  0  0  0  0
   69.4914   50.9400   57.8577 C   0  0  0  0  0  0  0  0  0  0  0  0
   69.6587   50.3740   58.9594 O   0  0  0  0  0  0  0  0  0  0  0  0
   70.4690   51.8270   57.4192 O   0  0  0  0  0  0  0  0  0  0  0  0
 12 13  2  0  0  0
 13 11  1  0  0  0
 13 14  1  0  0  0
  1 11  1  0  0  0
  1  2  1  0  0  0
  1  6  1  0  0  0
  2  3  2  0  0  0
  3  8  1  0  0  0
  3  4  1  0  0  0
  8  9  2  0  0  0
  8 10  1  0  0  0
  4  5  2  0  0  0
  5  6  1  0  0  0
  6  7  1  0  0  0
 14 15  2  0  0  0
 14 16  1  0  0  0
M  END
> <minimizedAffinity>
-6.65801

$$$$
../data/cho_sim50/10751803.pdb


 16 16  0  0  0  0  0  0  0  0999 V2000
   70.1357   49.3441   53.5309 C   0  0  0  0  0  0  0  0  0  0  0  0
   69.4656   48.4508   54.4906 C   0  0  0  0  0  0  0  0  0  0  0  0
   68.9518   47.2831   54.2362 C   0  0  0  0  0  0  0  0  0  0  0  0
   69.0238   46.7677   52.8780 C   0  0  0  0  0  0  0  0  0  0  0  0
   69.6004   47.4910   51.9604 C   0  0  0  0  0  0  0  0  0  0  0  0
   70.2055   48.8131   52.1489 C   0  0  0  0  0  0  0  0  0  0  0  0
   69.6185   49.6896   51.2355 O   0  0  0  0  0  0  0  0  0  0  0  0
   68.3108   46.4889   55.2818 C   0  0  0  0  0  0  0  0  0  0  0  0
   67.9771   47.0395   56.3423 O   0  0  0  0  0  0  0  0  0  0  0  0
   68.0591   45.1368   55.1330 O   0  0  0  0  0  0  0  0  0  0  0  0
   71.4145   49.6480   54.0571 O   0  0  0  0  0  0  0  0  0  0  0  0
   70.8758   51.7736   54.8485 C   0  0  0  0  0  0  0  0  0  0  0  0
   71.7883   50.8801   54.5457 C   0  0  0  0  0  0  0  0  0  0  0  0
   73.1871   51.1800   54.7210 C   0  0  0  0  0  0  0  0  0  0  0  0
   74.0532   50.6352   54.0037 O   0  0  0  0  0  0  0  0  0  0  0  0
   73.5727   52.0814   55.6938 O   0  0  0  0  0  0  0  0  0  0  0  0
 12 13  2  0  0  0
 13 11  1  0  0  0
 13 14  1  0  0  0
  1 11  1  0  0  0
  1  2  1  0  0  0
  1  6  1  0  0  0
  2  3  2  0  0  0
  3  8  1  0  0  0
  3  4  1  0  0  0
  8  9  2  0  0  0
  8 10  1  0  0  0
  4  5  2  0  0  0
  5  6  1  0  0  0
  6  7  1  0  0  0
 14 15  2  0  0  0
 14 16  1  0  0  0
M  END
> <minimizedAffinity>
-6.93852

$$$$
../data/cho_sim50/11086296.pdb


 18 18  0  0  0  0  0  0  0  0999 V2000
   70.1044   49.2975   53.4346 C   0  0  0  0  0  0  0  0  0  0  0  0
   69.4513   48.4135   54.4039 C   0  0  0  0  0  0  0  0  0  0  0  0
   68.9494   47.2194   54.1772 C   0  0  0  0  0  0  0  0  0  0  0  0
   69.0598   46.7258   52.8167 C   0  0  0  0  0  0  0  0  0  0  0  0
   69.6282   47.4325   51.8716 C   0  0  0  0  0  0  0  0  0  0  0  0
   70.1976   48.7542   52.0737 C   0  0  0  0  0  0  0  0  0  0  0  0
   69.5855   49.7072   51.2133 O   0  0  0  0  0  0  0  0  0  0  0  0
   68.3257   46.4404   55.2207 C   0  0  0  0  0  0  0  0  0  0  0  0
   68.0504   46.8967   56.3577 O   0  0  0  0  0  0  0  0  0  0  0  0
   68.0054   45.1173   54.9692 O   0  0  0  0  0  0  0  0  0  0  0  0
   68.3981   44.0498   55.8017 C   0  0  0  0  0  0  0  0  0  0  0  0
   71.4123   49.6352   53.9264 O   0  0  0  0  0  0  0  0  0  0  0  0
   70.7385   51.7420   54.6134 C   0  0  0  0  0  0  0  0  0  0  0  0
   71.6350   50.7780   54.6708 C   0  0  0  0  0  0  0  0  0  0  0  0
   72.8082   50.9578   55.5088 C   0  0  0  0  0  0  0  0  0  0  0  0
   73.3151   49.9907   56.1303 O   0  0  0  0  0  0  0  0  0  0  0  0
   73.4309   52.1922   55.6702 O   0  0  0  0  0  0  0  0  0  0  0  0
   74.3617   52.6686   54.6962 C   0  0  0  0  0  0  0  0  0  0  0  0
 13 14  2  0  0  0
 14 12  1  0  0  0
 14 15  1  0  0  0
  1 12  1  0  0  0
  1  2  1  0  0  0
  1  6  1  0  0  0
  2  3  2  0  0  0
  3  8  1  0  0  0
  3  4  1  0  0  0
  8  9  2  0  0  0
  8 10  1  0  0  0
 10 11  1  0  0  0
  4  5  2  0  0  0
  5  6  1  0  0  0
  6  7  1  0  0  0
 15 16  2  0  0  0
 15 17  1  0  0  0
 17 18  1  0  0  0
M  END
> <minimizedAffinity>
-6.53538

$$$$
../data/cho_sim50/11086296.pdb


 18 18  0  0  0  0  0  0  0  0999 V2000
   70.1485   49.2875   53.4542 C   0  0  0  0  0  0  0  0  0  0  0  0
   69.4749   48.4142   54.4195 C   0  0  0  0  0  0  0  0  0  0  0  0
   68.9564   47.2354   54.1635 C   0  0  0  0  0  0  0  0  0  0  0  0
   69.0342   46.7131   52.8160 C   0  0  0  0  0  0  0  0  0  0  0  0
   69.6167   47.4253   51.8941 C   0  0  0  0  0  0  0  0  0  0  0  0
   70.2279   48.7487   52.0669 C   0  0  0  0  0  0  0  0  0  0  0  0
   69.6040   49.6089   51.1334 O   0  0  0  0  0  0  0  0  0  0  0  0
   68.3048   46.4462   55.2082 C   0  0  0  0  0  0  0  0  0  0  0  0
   68.0067   46.9637   56.3040 O   0  0  0  0  0  0  0  0  0  0  0  0
   68.0002   45.1067   55.0134 O   0  0  0  0  0  0  0  0  0  0  0  0
   68.4882   44.0769   55.8642 C   0  0  0  0  0  0  0  0  0  0  0  0
   71.4115   49.6375   53.9886 O   0  0  0  0  0  0  0  0  0  0  0  0
   71.0822   51.8399   54.6137 C   0  0  0  0  0  0  0  0  0  0  0  0
   71.6108   50.6683   54.8846 C   0  0  0  0  0  0  0  0  0  0  0  0
   72.3873   50.4943   56.1169 C   0  0  0  0  0  0  0  0  0  0  0  0
   73.5263   49.9437   56.0856 O   0  0  0  0  0  0  0  0  0  0  0  0
   71.9308   50.9093   57.3474 O   0  0  0  0  0  0  0  0  0  0  0  0
   72.6106   51.8460   58.1697 C   0  0  0  0  0  0  0  0  0  0  0  0
 13 14  2  0  0  0
 14 12  1  0  0  0
 14 15  1  0  0  0
  1 12  1  0  0  0
  1  2  1  0  0  0
  1  6  1  0  0  0
  2  3  2  0  0  0
  3  8  1  0  0  0
  3  4  1  0  0  0
  8  9  2  0  0  0
  8 10  1  0  0  0
 10 11  1  0  0  0
  4  5  2  0  0  0
  5  6  1  0  0  0
  6  7  1  0  0  0
 15 16  2  0  0  0
 15 17  1  0  0  0
 17 18  1  0  0  0
M  END
> <minimizedAffinity>
-6.41280

$$$$
../data/cho_sim50/11086296.pdb


 18 18  0  0  0  0  0  0  0  0999 V2000
   70.0142   49.3216   53.4601 C   0  0  0  0  0  0  0  0  0  0  0  0
   69.3670   48.4524   54.4428 C   0  0  0  0  0  0  0  0  0  0  0  0
   68.9046   47.2603   54.1655 C   0  0  0  0  0  0  0  0  0  0  0  0
   69.0256   46.7448   52.8141 C   0  0  0  0  0  0  0  0  0  0  0  0
   69.5974   47.4904   51.9030 C   0  0  0  0  0  0  0  0  0  0  0  0
   70.1526   48.8266   52.0679 C   0  0  0  0  0  0  0  0  0  0  0  0
   69.6192   49.7372   51.1319 O   0  0  0  0  0  0  0  0  0  0  0  0
   68.2617   46.4380   55.2147 C   0  0  0  0  0  0  0  0  0  0  0  0
   67.9739   46.9484   56.2997 O   0  0  0  0  0  0  0  0  0  0  0  0
   68.0046   45.1258   54.9434 O   0  0  0  0  0  0  0  0  0  0  0  0
   68.4109   44.0608   55.7842 C   0  0  0  0  0  0  0  0  0  0  0  0
   71.3586   49.5728   53.9511 O   0  0  0  0  0  0  0  0  0  0  0  0
   70.8189   51.7296   54.6299 C   0  0  0  0  0  0  0  0  0  0  0  0
   71.7179   50.7906   54.4743 C   0  0  0  0  0  0  0  0  0  0  0  0
   73.1136   51.0224   54.8535 C   0  0  0  0  0  0  0  0  0  0  0  0
   74.0389   50.7352   54.0787 O   0  0  0  0  0  0  0  0  0  0  0  0
   73.4554   51.5704   56.0868 O   0  0  0  0  0  0  0  0  0  0  0  0
   73.7194   50.7711   57.2293 C   0  0  0  0  0  0  0  0  0  0  0  0
 13 14  2  0  0  0
 14 12  1  0  0  0
 14 15  1  0  0  0
  1 12  1  0  0  0
  1  2  1  0  0  0
  1  6  1  0  0  0
  2  3  2  0  0  0
  3  8  1  0  0  0
  3  4  1  0  0  0
  8  9  2  0  0  0
  8 10  1  0  0  0
 10 11  1  0  0  0
  4  5  2  0  0  0
  5  6  1  0  0  0
  6  7  1  0  0  0
 15 16  2  0  0  0
 15 17  1  0  0  0
 17 18  1  0  0  0
M  END
> <minimizedAffinity>
-6.55522

$$$$
../data/cho_sim50/13257072.pdb


 16 16  0  0  0  0  0  0  0  0999 V2000
   69.5645   48.8239   53.4829 C   0  0  0  0  0  0  0  0  0  0  0  0
   69.3111   47.8303   54.5168 C   0  0  0  0  0  0  0  0  0  0  0  0
   68.7548   46.6771   54.2702 C   0  0  0  0  0  0  0  0  0  0  0  0
   68.4353   46.3016   52.8942 C   0  0  0  0  0  0  0  0  0  0  0  0
   68.7158   47.1141   51.9174 C   0  0  0  0  0  0  0  0  0  0  0  0
   69.3472   48.4024   52.1089 C   0  0  0  0  0  0  0  0  0  0  0  0
   70.5626   48.3601   51.3606 O   0  0  0  0  0  0  0  0  0  0  0  0
   68.4989   45.6954   55.3156 C   0  0  0  0  0  0  0  0  0  0  0  0
   68.8187   45.9777   56.4912 O   0  0  0  0  0  0  0  0  0  0  0  0
   67.9242   44.4799   55.0658 O   0  0  0  0  0  0  0  0  0  0  0  0
   68.9533   50.0827   53.7920 O   0  0  0  0  0  0  0  0  0  0  0  0
   68.8399   52.2765   54.5388 C   0  0  0  0  0  0  0  0  0  0  0  0
   69.5570   51.1700   54.3337 C   0  0  0  0  0  0  0  0  0  0  0  0
   70.9639   51.1960   54.7071 C   0  0  0  0  0  0  0  0  0  0  0  0
   71.8030   51.8601   54.0019 O   0  0  0  0  0  0  0  0  0  0  0  0
   71.4913   50.5498   55.7857 O   0  0  0  0  0  0  0  0  0  0  0  0
 12 13  2  0  0  0
 13 11  1  0  0  0
 13 14  1  0  0  0
  1 11  1  0  0  0
  1  2  1  0  0  0
  1  6  1  0  0  0
  2  3  2  0  0  0
  3  8  1  0  0  0
  3  4  1  0  0  0
  8  9  2  0  0  0
  8 10  1  0  0  0
  4  5  2  0  0  0
  5  6  1  0  0  0
  6  7  1  0  0  0
 14 15  2  0  0  0
 14 16  1  0  0  0
M  END
> <minimizedAffinity>
-6.65397

$$$$
../data/cho_sim50/13257072.pdb


 16 16  0  0  0  0  0  0  0  0999 V2000
   70.5770   49.7407   55.4266 C   0  0  0  0  0  0  0  0  0  0  0  0
   70.4890   49.5745   53.9858 C   0  0  0  0  0  0  0  0  0  0  0  0
   69.8515   48.6198   53.3351 C   0  0  0  0  0  0  0  0  0  0  0  0
   69.1709   47.6397   54.1763 C   0  0  0  0  0  0  0  0  0  0  0  0
   69.1712   47.6731   55.4797 C   0  0  0  0  0  0  0  0  0  0  0  0
   69.8642   48.7132   56.2420 C   0  0  0  0  0  0  0  0  0  0  0  0
   68.9190   49.3975   57.0654 O   0  0  0  0  0  0  0  0  0  0  0  0
   69.8276   48.5470   51.8808 C   0  0  0  0  0  0  0  0  0  0  0  0
   69.8085   49.5451   51.1356 O   0  0  0  0  0  0  0  0  0  0  0  0
   69.8266   47.2954   51.2866 O   0  0  0  0  0  0  0  0  0  0  0  0
   71.9590   49.8487   55.8294 O   0  0  0  0  0  0  0  0  0  0  0  0
   72.2253   52.0917   56.3451 C   0  0  0  0  0  0  0  0  0  0  0  0
   72.6585   51.0330   55.6866 C   0  0  0  0  0  0  0  0  0  0  0  0
   73.8412   51.1571   54.8484 C   0  0  0  0  0  0  0  0  0  0  0  0
   73.9667   50.4799   53.7956 O   0  0  0  0  0  0  0  0  0  0  0  0
   74.8875   52.0186   55.1559 O   0  0  0  0  0  0  0  0  0  0  0  0
 12 13  2  0  0  0
 13 11  1  0  0  0
 13 14  1  0  0  0
  1 11  1  0  0  0
  1  2  1  0  0  0
  1  6  1  0  0  0
  2  3  2  0  0  0
  3  8  1  0  0  0
  3  4  1  0  0  0
  8  9  2  0  0  0
  8 10  1  0  0  0
  4  5  2  0  0  0
  5  6  1  0  0  0
  6  7  1  0  0  0
 14 15  2  0  0  0
 14 16  1  0  0  0
M  END
> <minimizedAffinity>
-6.68407

$$$$
../data/cho_sim50/16219080.pdb


 16 16  0  0  0  0  0  0  0  0999 V2000
   69.2913   48.7698   55.7398 C   0  0  0  0  0  0  0  0  0  0  0  0
   69.7057   48.8061   54.3311 C   0  0  0  0  0  0  0  0  0  0  0  0
   69.3655   47.9036   53.4337 C   0  0  0  0  0  0  0  0  0  0  0  0
   68.5248   46.7930   53.8615 C   0  0  0  0  0  0  0  0  0  0  0  0
   68.1251   46.7005   55.0919 C   0  0  0  0  0  0  0  0  0  0  0  0
   68.4359   47.6305   56.1582 C   0  0  0  0  0  0  0  0  0  0  0  0
   69.0807   46.8687   57.1759 O   0  0  0  0  0  0  0  0  0  0  0  0
   69.8125   47.9941   52.0316 C   0  0  0  0  0  0  0  0  0  0  0  0
   69.9342   46.9601   51.3613 O   0  0  0  0  0  0  0  0  0  0  0  0
   70.0863   49.2247   51.4886 O   0  0  0  0  0  0  0  0  0  0  0  0
   68.5873   49.9856   56.0822 O   0  0  0  0  0  0  0  0  0  0  0  0
   69.2659   50.5328   58.2816 C   0  0  0  0  0  0  0  0  0  0  0  0
   68.3043   50.2813   57.4070 C   0  0  0  0  0  0  0  0  0  0  0  0
   66.9269   50.3168   57.8424 C   0  0  0  0  0  0  0  0  0  0  0  0
   66.1763   51.2483   57.4850 O   0  0  0  0  0  0  0  0  0  0  0  0
   66.4285   49.3184   58.6587 O   0  0  0  0  0  0  0  0  0  0  0  0
 12 13  2  0  0  0
 13 11  1  0  0  0
 13 14  1  0  0  0
  1 11  1  0  0  0
  1  2  1  0  0  0
  1  6  1  0  0  0
  2  3  2  0  0  0
  3  8  1  0  0  0
  3  4  1  0  0  0
  8  9  2  0  0  0
  8 10  1  0  0  0
  4  5  2  0  0  0
  5  6  1  0  0  0
  6  7  1  0  0  0
 14 15  2  0  0  0
 14 16  1  0  0  0
M  END
> <minimizedAffinity>
-6.79542

$$$$
../data/cho_sim50/16219080.pdb


 16 16  0  0  0  0  0  0  0  0999 V2000
   69.3497   48.6334   55.7716 C   0  0  0  0  0  0  0  0  0  0  0  0
   69.7176   48.7003   54.3438 C   0  0  0  0  0  0  0  0  0  0  0  0
   69.3515   47.8654   53.4142 C   0  0  0  0  0  0  0  0  0  0  0  0
   68.4988   46.7445   53.7708 C   0  0  0  0  0  0  0  0  0  0  0  0
   68.1147   46.5991   55.0269 C   0  0  0  0  0  0  0  0  0  0  0  0
   68.4780   47.4862   56.1300 C   0  0  0  0  0  0  0  0  0  0  0  0
   69.1557   46.7038   57.0901 O   0  0  0  0  0  0  0  0  0  0  0  0
   69.7797   48.0295   52.0220 C   0  0  0  0  0  0  0  0  0  0  0  0
   69.9393   47.0603   51.2516 O   0  0  0  0  0  0  0  0  0  0  0  0
   70.0277   49.2954   51.5088 O   0  0  0  0  0  0  0  0  0  0  0  0
   68.6749   49.8300   56.0940 O   0  0  0  0  0  0  0  0  0  0  0  0
   69.3010   50.4688   58.2140 C   0  0  0  0  0  0  0  0  0  0  0  0
   68.3179   50.1913   57.3819 C   0  0  0  0  0  0  0  0  0  0  0  0
   66.9312   50.2696   57.8255 C   0  0  0  0  0  0  0  0  0  0  0  0
   66.1996   51.2293   57.4960 O   0  0  0  0  0  0  0  0  0  0  0  0
   66.4084   49.2736   58.6223 O   0  0  0  0  0  0  0  0  0  0  0  0
 12 13  2  0  0  0
 13 11  1  0  0  0
 13 14  1  0  0  0
  1 11  1  0  0  0
  1  2  1  0  0  0
  1  6  1  0  0  0
  2  3  2  0  0  0
  3  8  1  0  0  0
  3  4  1  0  0  0
  8  9  2  0  0  0
  8 10  1  0  0  0
  4  5  2  0  0  0
  5  6  1  0  0  0
  6  7  1  0  0  0
 14 15  2  0  0  0
 14 16  1  0  0  0
M  END
> <minimizedAffinity>
-6.78092

$$$$
../data/cho_sim50/24962614.pdb


 18 18  0  0  0  0  0  0  0  0999 V2000
   69.9204   49.2541   53.9805 C   0  0  0  0  0  0  0  0  0  0  0  0
   69.4195   48.5865   55.0679 C   0  0  0  0  0  0  0  0  0  0  0  0
   68.7960   47.4271   54.9458 O   0  0  0  0  0  0  0  0  0  0  0  0
   68.5992   46.8161   53.8057 C   0  0  0  0  0  0  0  0  0  0  0  0
   69.0739   47.4235   52.6638 C   0  0  0  0  0  0  0  0  0  0  0  0
   69.7299   48.6314   52.7405 C   0  0  0  0  0  0  0  0  0  0  0  0
   70.1756   49.2130   51.7201 O   0  0  0  0  0  0  0  0  0  0  0  0
   67.8956   45.5236   53.7403 C   0  0  0  0  0  0  0  0  0  0  0  0
   67.8785   44.7417   54.7031 O   0  0  0  0  0  0  0  0  0  0  0  0
   67.2369   45.1729   52.5718 O   0  0  0  0  0  0  0  0  0  0  0  0
   71.7483   50.7432   54.6981 C   0  0  0  0  0  0  0  0  0  0  0  0
   70.6199   50.5390   54.0465 C   0  0  0  0  0  0  0  0  0  0  0  0
   72.3844   52.0754   54.7108 C   0  0  0  0  0  0  0  0  0  0  0  0
   73.1114   52.4524   53.7712 O   0  0  0  0  0  0  0  0  0  0  0  0
   72.1758   52.9130   55.7676 O   0  0  0  0  0  0  0  0  0  0  0  0
   72.0691   52.1945   58.0812 C   0  0  0  0  0  0  0  0  0  0  0  0
   72.8580   52.8699   56.9857 C   0  0  0  0  0  0  0  0  0  0  0  0
   73.3186   54.2093   57.4732 C   0  0  0  0  0  0  0  0  0  0  0  0
 16 17  1  0  0  0
 17 18  1  0  0  0
 17 15  1  0  0  0
 15 13  1  0  0  0
 13 14  2  0  0  0
 13 11  1  0  0  0
 11 12  2  0  0  0
 12  1  1  0  0  0
  1  2  2  0  0  0
  1  6  1  0  0  0
  2  3  1  0  0  0
  3  4  1  0  0  0
  4  8  1  0  0  0
  4  5  2  0  0  0
  8  9  2  0  0  0
  8 10  1  0  0  0
  5  6  1  0  0  0
  6  7  2  0  0  0
M  END
> <minimizedAffinity>
-6.40093

$$$$
../data/cho_sim50/24962614.pdb


 18 18  0  0  0  0  0  0  0  0999 V2000
   69.9963   49.2167   53.8114 C   0  0  0  0  0  0  0  0  0  0  0  0
   69.4724   48.5599   54.9250 C   0  0  0  0  0  0  0  0  0  0  0  0
   68.8220   47.4272   54.8685 O   0  0  0  0  0  0  0  0  0  0  0  0
   68.6188   46.8239   53.7227 C   0  0  0  0  0  0  0  0  0  0  0  0
   69.1003   47.4057   52.5926 C   0  0  0  0  0  0  0  0  0  0  0  0
   69.8054   48.6233   52.6105 C   0  0  0  0  0  0  0  0  0  0  0  0
   70.2170   49.0950   51.5340 O   0  0  0  0  0  0  0  0  0  0  0  0
   67.8846   45.5527   53.6858 C   0  0  0  0  0  0  0  0  0  0  0  0
   67.8879   44.7926   54.6855 O   0  0  0  0  0  0  0  0  0  0  0  0
   67.1743   45.1424   52.5780 O   0  0  0  0  0  0  0  0  0  0  0  0
   71.6717   50.6924   54.8354 C   0  0  0  0  0  0  0  0  0  0  0  0
   70.6937   50.4567   53.9910 C   0  0  0  0  0  0  0  0  0  0  0  0
   72.2528   52.0307   54.8645 C   0  0  0  0  0  0  0  0  0  0  0  0
   72.9267   52.4335   53.8953 O   0  0  0  0  0  0  0  0  0  0  0  0
   72.0914   52.8966   55.9347 O   0  0  0  0  0  0  0  0  0  0  0  0
   72.0462   52.0343   58.1999 C   0  0  0  0  0  0  0  0  0  0  0  0
   72.8402   52.7591   57.1375 C   0  0  0  0  0  0  0  0  0  0  0  0
   73.2821   54.1031   57.6728 C   0  0  0  0  0  0  0  0  0  0  0  0
 16 17  1  0  0  0
 17 18  1  0  0  0
 17 15  1  0  0  0
 15 13  1  0  0  0
 13 14  2  0  0  0
 13 11  1  0  0  0
 11 12  2  0  0  0
 12  1  1  0  0  0
  1  2  2  0  0  0
  1  6  1  0  0  0
  2  3  1  0  0  0
  3  4  1  0  0  0
  4  8  1  0  0  0
  4  5  2  0  0  0
  8  9  2  0  0  0
  8 10  1  0  0  0
  5  6  1  0  0  0
  6  7  2  0  0  0
M  END
> <minimizedAffinity>
-6.51393

$$$$
../data/cho_sim50/44123452.pdb


 16 16  0  0  0  0  0  0  0  0999 V2000
   69.2848   48.9348   55.6302 C   0  0  0  0  0  0  0  0  0  0  0  0
   69.5370   48.7897   54.1969 C   0  0  0  0  0  0  0  0  0  0  0  0
   69.3078   47.8294   53.3148 C   0  0  0  0  0  0  0  0  0  0  0  0
   68.6730   46.5587   53.6474 C   0  0  0  0  0  0  0  0  0  0  0  0
   68.4754   45.9462   54.8136 C   0  0  0  0  0  0  0  0  0  0  0  0
   68.9048   46.4962   56.1299 C   0  0  0  0  0  0  0  0  0  0  0  0
   68.4103   47.8961   56.2343 C   0  0  0  0  0  0  0  0  0  0  0  0
   69.7157   48.0641   51.9390 C   0  0  0  0  0  0  0  0  0  0  0  0
   69.8969   47.0981   51.1742 O   0  0  0  0  0  0  0  0  0  0  0  0
   69.8940   49.3522   51.5003 O   0  0  0  0  0  0  0  0  0  0  0  0
   68.6474   50.1944   55.8305 O   0  0  0  0  0  0  0  0  0  0  0  0
   67.2564   51.1030   57.4478 C   0  0  0  0  0  0  0  0  0  0  0  0
   68.4608   50.7752   57.0521 C   0  0  0  0  0  0  0  0  0  0  0  0
   69.6135   51.0240   57.9005 C   0  0  0  0  0  0  0  0  0  0  0  0
   69.7164   50.5176   59.0439 O   0  0  0  0  0  0  0  0  0  0  0  0
   70.6477   51.8416   57.4642 O   0  0  0  0  0  0  0  0  0  0  0  0
 12 13  2  0  0  0
 13 11  1  0  0  0
 13 14  1  0  0  0
  1 11  1  0  0  0
  1  2  1  0  0  0
  1  7  1  0  0  0
  2  3  2  0  0  0
  3  8  1  0  0  0
  3  4  1  0  0  0
  8  9  2  0  0  0
  8 10  1  0  0  0
  4  5  2  0  0  0
  5  6  1  0  0  0
  6  7  1  0  0  0
 14 15  2  0  0  0
 14 16  1  0  0  0
M  END
> <minimizedAffinity>
-6.83108

$$$$
../data/cho_sim50/44123452.pdb


 16 16  0  0  0  0  0  0  0  0999 V2000
   68.2206   45.3867   55.5180 C   0  0  0  0  0  0  0  0  0  0  0  0
   68.1931   45.6007   54.0391 C   0  0  0  0  0  0  0  0  0  0  0  0
   68.4990   46.6557   53.3288 C   0  0  0  0  0  0  0  0  0  0  0  0
   68.9627   47.9365   53.8382 C   0  0  0  0  0  0  0  0  0  0  0  0
   69.1119   48.3878   55.0794 C   0  0  0  0  0  0  0  0  0  0  0  0
   68.8310   47.6675   56.3494 C   0  0  0  0  0  0  0  0  0  0  0  0
   69.3164   46.2379   56.1523 C   0  0  0  0  0  0  0  0  0  0  0  0
   68.3617   46.5393   51.8706 C   0  0  0  0  0  0  0  0  0  0  0  0
   69.2405   46.9895   51.1089 O   0  0  0  0  0  0  0  0  0  0  0  0
   67.2591   45.9297   51.2931 O   0  0  0  0  0  0  0  0  0  0  0  0
   68.2853   44.1526   55.9441 O   0  0  0  0  0  0  0  0  0  0  0  0
   69.3500   42.4847   57.0983 C   0  0  0  0  0  0  0  0  0  0  0  0
   68.3258   42.9553   56.3623 C   0  0  0  0  0  0  0  0  0  0  0  0
   67.2676   41.9529   56.0925 C   0  0  0  0  0  0  0  0  0  0  0  0
   66.0455   42.1871   56.2612 O   0  0  0  0  0  0  0  0  0  0  0  0
   67.5898   40.6746   55.6294 O   0  0  0  0  0  0  0  0  0  0  0  0
 12 13  2  0  0  0
 13 11  1  0  0  0
 13 14  1  0  0  0
  1 11  1  0  0  0
  1  2  1  0  0  0
  1  7  1  0  0  0
  2  3  2  0  0  0
  3  8  1  0  0  0
  3  4  1  0  0  0
  8  9  2  0  0  0
  8 10  1  0  0  0
  4  5  2  0  0  0
  5  6  1  0  0  0
  6  7  1  0  0  0
 14 15  2  0  0  0
 14 16  1  0  0  0
M  END
> <minimizedAffinity>
-6.97880

$$$$
../data/cho_sim50/44329975.pdb


 13 13  0  0  0  0  0  0  0  0999 V2000
   69.8215   49.3459   53.6550 C   0  0  0  0  0  0  0  0  0  0  0  0
   68.9948   48.5569   54.5582 C   0  0  0  0  0  0  0  0  0  0  0  0
   68.5642   47.3597   54.2435 C   0  0  0  0  0  0  0  0  0  0  0  0
   68.8901   46.7472   52.9646 C   0  0  0  0  0  0  0  0  0  0  0  0
   69.6356   47.4218   52.1097 C   0  0  0  0  0  0  0  0  0  0  0  0
   70.1639   48.7571   52.3592 C   0  0  0  0  0  0  0  0  0  0  0  0
   69.7757   49.6350   51.2978 O   0  0  0  0  0  0  0  0  0  0  0  0
   71.0724   49.5188   54.3715 O   0  0  0  0  0  0  0  0  0  0  0  0
   70.7147   51.7459   54.8911 C   0  0  0  0  0  0  0  0  0  0  0  0
   71.5634   50.7595   54.6795 C   0  0  0  0  0  0  0  0  0  0  0  0
   72.9874   51.0187   54.7792 C   0  0  0  0  0  0  0  0  0  0  0  0
   73.4070   51.7320   55.7044 O   0  0  0  0  0  0  0  0  0  0  0  0
   73.8818   50.4864   53.8630 O   0  0  0  0  0  0  0  0  0  0  0  0
  9 10  2  0  0  0
 10  8  1  0  0  0
 10 11  1  0  0  0
  1  8  1  0  0  0
  1  2  1  0  0  0
  1  6  1  0  0  0
  2  3  2  0  0  0
  3  4  1  0  0  0
  4  5  2  0  0  0
  5  6  1  0  0  0
  6  7  1  0  0  0
 11 12  2  0  0  0
 11 13  1  0  0  0
M  END
> <minimizedAffinity>
-5.91793

$$$$
../data/cho_sim50/44329975.pdb


 13 13  0  0  0  0  0  0  0  0999 V2000
   69.8032   49.2130   53.7199 C   0  0  0  0  0  0  0  0  0  0  0  0
   68.9156   48.3748   54.4942 C   0  0  0  0  0  0  0  0  0  0  0  0
   68.4504   47.2068   54.1170 C   0  0  0  0  0  0  0  0  0  0  0  0
   68.8651   46.7132   52.8028 C   0  0  0  0  0  0  0  0  0  0  0  0
   69.6603   47.3965   52.0346 C   0  0  0  0  0  0  0  0  0  0  0  0
   70.2019   48.6908   52.4037 C   0  0  0  0  0  0  0  0  0  0  0  0
   69.7528   49.5823   51.3754 O   0  0  0  0  0  0  0  0  0  0  0  0
   71.0471   49.4175   54.4588 O   0  0  0  0  0  0  0  0  0  0  0  0
   70.5778   51.6780   54.6484 C   0  0  0  0  0  0  0  0  0  0  0  0
   71.4769   50.7224   54.6167 C   0  0  0  0  0  0  0  0  0  0  0  0
   72.8829   51.0739   54.7481 C   0  0  0  0  0  0  0  0  0  0  0  0
   73.2593   51.8827   55.6242 O   0  0  0  0  0  0  0  0  0  0  0  0
   73.8626   50.5346   53.9163 O   0  0  0  0  0  0  0  0  0  0  0  0
  9 10  2  0  0  0
 10  8  1  0  0  0
 10 11  1  0  0  0
  1  8  1  0  0  0
  1  2  1  0  0  0
  1  6  1  0  0  0
  2  3  2  0  0  0
  3  4  1  0  0  0
  4  5  2  0  0  0
  5  6  1  0  0  0
  6  7  1  0  0  0
 11 12  2  0  0  0
 11 13  1  0  0  0
M  END
> <minimizedAffinity>
-5.94420

$$$$
../data/cho_sim50/44329976.pdb


 13 13  0  0  0  0  0  0  0  0999 V2000
   69.9307   49.2202   53.7444 C   0  0  0  0  0  0  0  0  0  0  0  0
   69.0653   48.4242   54.6112 C   0  0  0  0  0  0  0  0  0  0  0  0
   68.5269   47.2867   54.2619 C   0  0  0  0  0  0  0  0  0  0  0  0
   68.7466   46.7048   52.9597 C   0  0  0  0  0  0  0  0  0  0  0  0
   69.5154   47.3605   52.1197 C   0  0  0  0  0  0  0  0  0  0  0  0
   70.1641   48.6399   52.4111 C   0  0  0  0  0  0  0  0  0  0  0  0
   69.7829   49.5409   51.3817 O   0  0  0  0  0  0  0  0  0  0  0  0
   71.1694   49.5081   54.4092 O   0  0  0  0  0  0  0  0  0  0  0  0
   70.6329   51.7753   54.8220 C   0  0  0  0  0  0  0  0  0  0  0  0
   71.5051   50.8168   54.6611 C   0  0  0  0  0  0  0  0  0  0  0  0
   72.9321   51.1261   54.7488 C   0  0  0  0  0  0  0  0  0  0  0  0
   73.4067   51.9411   55.5794 O   0  0  0  0  0  0  0  0  0  0  0  0
   73.8682   50.5178   53.8923 O   0  0  0  0  0  0  0  0  0  0  0  0
  9 10  2  0  0  0
 10  8  1  0  0  0
 10 11  1  0  0  0
  1  8  1  0  0  0
  1  2  1  0  0  0
  1  6  1  0  0  0
  2  3  2  0  0  0
  3  4  1  0  0  0
  4  5  2  0  0  0
  5  6  1  0  0  0
  6  7  1  0  0  0
 11 12  2  0  0  0
 11 13  1  0  0  0
M  END
> <minimizedAffinity>
-5.97920

$$$$
../data/cho_sim50/44329976.pdb


 13 13  0  0  0  0  0  0  0  0999 V2000
   69.8771   49.2478   53.7062 C   0  0  0  0  0  0  0  0  0  0  0  0
   69.0181   48.4222   54.5670 C   0  0  0  0  0  0  0  0  0  0  0  0
   68.5356   47.2635   54.2222 C   0  0  0  0  0  0  0  0  0  0  0  0
   68.8129   46.6754   52.9284 C   0  0  0  0  0  0  0  0  0  0  0  0
   69.5760   47.3589   52.1015 C   0  0  0  0  0  0  0  0  0  0  0  0
   70.1773   48.6701   52.3721 C   0  0  0  0  0  0  0  0  0  0  0  0
   69.7786   49.5244   51.3331 O   0  0  0  0  0  0  0  0  0  0  0  0
   71.0866   49.5030   54.3735 O   0  0  0  0  0  0  0  0  0  0  0  0
   70.6855   51.6650   55.0571 C   0  0  0  0  0  0  0  0  0  0  0  0
   71.5593   50.7397   54.7227 C   0  0  0  0  0  0  0  0  0  0  0  0
   72.9846   51.0783   54.7409 C   0  0  0  0  0  0  0  0  0  0  0  0
   73.4196   51.9298   55.5302 O   0  0  0  0  0  0  0  0  0  0  0  0
   73.8938   50.4672   53.8849 O   0  0  0  0  0  0  0  0  0  0  0  0
  9 10  2  0  0  0
 10  8  1  0  0  0
 10 11  1  0  0  0
  1  8  1  0  0  0
  1  2  1  0  0  0
  1  6  1  0  0  0
  2  3  2  0  0  0
  3  4  1  0  0  0
  4  5  2  0  0  0
  5  6  1  0  0  0
  6  7  1  0  0  0
 11 12  2  0  0  0
 11 13  1  0  0  0
M  END
> <minimizedAffinity>
-5.96192

$$$$
../data/cho_sim50/54448451.pdb


 16 16  0  0  0  0  0  0  0  0999 V2000
   69.2770   48.3704   55.2744 C   0  0  0  0  0  0  0  0  0  0  0  0
   69.0993   48.0898   53.8735 C   0  0  0  0  0  0  0  0  0  0  0  0
   68.7212   46.9496   53.3607 C   0  0  0  0  0  0  0  0  0  0  0  0
   68.4047   45.8765   54.2832 C   0  0  0  0  0  0  0  0  0  0  0  0
   68.4905   46.0482   55.5732 C   0  0  0  0  0  0  0  0  0  0  0  0
   68.8950   47.2896   56.2171 C   0  0  0  0  0  0  0  0  0  0  0  0
   67.7524   47.6944   56.9859 O   0  0  0  0  0  0  0  0  0  0  0  0
   68.5677   46.7400   51.9132 C   0  0  0  0  0  0  0  0  0  0  0  0
   69.4828   47.0513   51.1132 O   0  0  0  0  0  0  0  0  0  0  0  0
   67.4107   46.1979   51.4213 O   0  0  0  0  0  0  0  0  0  0  0  0
   70.5946   48.7721   55.6203 O   0  0  0  0  0  0  0  0  0  0  0  0
   71.1055   50.6059   56.9179 C   0  0  0  0  0  0  0  0  0  0  0  0
   71.1021   50.0136   55.7361 C   0  0  0  0  0  0  0  0  0  0  0  0
   71.6541   50.7511   54.6174 C   0  0  0  0  0  0  0  0  0  0  0  0
   72.8965   50.6756   54.3116 O   0  0  0  0  0  0  0  0  0  0  0  0
   70.9234   51.5858   53.7906 O   0  0  0  0  0  0  0  0  0  0  0  0
 12 13  2  0  0  0
 13 11  1  0  0  0
 13 14  1  0  0  0
  1 11  1  0  0  0
  1  2  1  0  0  0
  1  6  1  0  0  0
  2  3  2  0  0  0
  3  8  1  0  0  0
  3  4  1  0  0  0
  8  9  2  0  0  0
  8 10  1  0  0  0
  4  5  2  0  0  0
  5  6  1  0  0  0
  6  7  1  0  0  0
 14 15  2  0  0  0
 14 16  1  0  0  0
M  END
> <minimizedAffinity>
-6.66837

$$$$
../data/cho_sim50/54448451.pdb


 16 16  0  0  0  0  0  0  0  0999 V2000
   70.5965   49.8317   55.4445 C   0  0  0  0  0  0  0  0  0  0  0  0
   70.5184   49.6121   53.9881 C   0  0  0  0  0  0  0  0  0  0  0  0
   69.8715   48.6361   53.4051 C   0  0  0  0  0  0  0  0  0  0  0  0
   69.1530   47.6565   54.2030 C   0  0  0  0  0  0  0  0  0  0  0  0
   69.1712   47.7790   55.5154 C   0  0  0  0  0  0  0  0  0  0  0  0
   69.8588   48.8277   56.2709 C   0  0  0  0  0  0  0  0  0  0  0  0
   68.8870   49.4742   57.0594 O   0  0  0  0  0  0  0  0  0  0  0  0
   69.8514   48.4995   51.9501 C   0  0  0  0  0  0  0  0  0  0  0  0
   69.7949   49.5479   51.2341 O   0  0  0  0  0  0  0  0  0  0  0  0
   69.8938   47.2414   51.3975 O   0  0  0  0  0  0  0  0  0  0  0  0
   71.9617   49.7648   55.7917 O   0  0  0  0  0  0  0  0  0  0  0  0
   72.6250   51.6755   56.8900 C   0  0  0  0  0  0  0  0  0  0  0  0
   72.8009   50.8551   55.8736 C   0  0  0  0  0  0  0  0  0  0  0  0
   73.8487   51.1404   54.9159 C   0  0  0  0  0  0  0  0  0  0  0  0
   73.9935   50.5026   53.8411 O   0  0  0  0  0  0  0  0  0  0  0  0
   74.7883   52.1680   55.1288 O   0  0  0  0  0  0  0  0  0  0  0  0
 12 13  2  0  0  0
 13 11  1  0  0  0
 13 14  1  0  0  0
  1 11  1  0  0  0
  1  2  1  0  0  0
  1  6  1  0  0  0
  2  3  2  0  0  0
  3  8  1  0  0  0
  3  4  1  0  0  0
  8  9  2  0  0  0
  8 10  1  0  0  0
  4  5  2  0  0  0
  5  6  1  0  0  0
  6  7  1  0  0  0
 14 15  2  0  0  0
 14 16  1  0  0  0
M  END
> <minimizedAffinity>
-6.69812

$$$$
../data/cho_sim50/54448451.pdb


 16 16  0  0  0  0  0  0  0  0999 V2000
   68.9633   48.9982   55.6928 C   0  0  0  0  0  0  0  0  0  0  0  0
   69.3432   49.0386   54.2942 C   0  0  0  0  0  0  0  0  0  0  0  0
   69.3226   47.9989   53.4987 C   0  0  0  0  0  0  0  0  0  0  0  0
   68.8901   46.7261   54.0687 C   0  0  0  0  0  0  0  0  0  0  0  0
   68.5327   46.6004   55.3199 C   0  0  0  0  0  0  0  0  0  0  0  0
   68.5380   47.7178   56.2442 C   0  0  0  0  0  0  0  0  0  0  0  0
   67.3065   47.8071   56.9493 O   0  0  0  0  0  0  0  0  0  0  0  0
   69.7137   48.0789   52.0899 C   0  0  0  0  0  0  0  0  0  0  0  0
   69.8659   47.0498   51.3868 O   0  0  0  0  0  0  0  0  0  0  0  0
   69.9344   49.2989   51.4708 O   0  0  0  0  0  0  0  0  0  0  0  0
   69.9465   49.6552   56.5207 O   0  0  0  0  0  0  0  0  0  0  0  0
   69.9147   50.4570   58.7056 C   0  0  0  0  0  0  0  0  0  0  0  0
   69.4473   50.5219   57.4732 C   0  0  0  0  0  0  0  0  0  0  0  0
   68.4234   51.4774   57.0827 C   0  0  0  0  0  0  0  0  0  0  0  0
   68.6923   52.5026   56.3903 O   0  0  0  0  0  0  0  0  0  0  0  0
   67.1131   51.2908   57.4601 O   0  0  0  0  0  0  0  0  0  0  0  0
 12 13  2  0  0  0
 13 11  1  0  0  0
 13 14  1  0  0  0
  1 11  1  0  0  0
  1  2  1  0  0  0
  1  6  1  0  0  0
  2  3  2  0  0  0
  3  8  1  0  0  0
  3  4  1  0  0  0
  8  9  2  0  0  0
  8 10  1  0  0  0
  4  5  2  0  0  0
  5  6  1  0  0  0
  6  7  1  0  0  0
 14 15  2  0  0  0
 14 16  1  0  0  0
M  END
> <minimizedAffinity>
-6.84240

$$$$
../data/cho_sim50/57759058.pdb


 16 16  0  0  0  0  0  0  0  0999 V2000
   70.1302   49.2309   53.4612 C   0  0  0  0  0  0  0  0  0  0  0  0
   69.5119   48.3866   54.4750 C   0  0  0  0  0  0  0  0  0  0  0  0
   68.9757   47.2026   54.2580 C   0  0  0  0  0  0  0  0  0  0  0  0
   69.0242   46.7188   52.8788 C   0  0  0  0  0  0  0  0  0  0  0  0
   69.5617   47.4008   51.9105 C   0  0  0  0  0  0  0  0  0  0  0  0
   70.1668   48.7046   52.0915 C   0  0  0  0  0  0  0  0  0  0  0  0
   69.6682   49.6418   51.1472 O   0  0  0  0  0  0  0  0  0  0  0  0
   68.3751   46.4139   55.3156 C   0  0  0  0  0  0  0  0  0  0  0  0
   68.1603   46.9395   56.4171 O   0  0  0  0  0  0  0  0  0  0  0  0
   68.0507   45.1014   55.0968 O   0  0  0  0  0  0  0  0  0  0  0  0
   71.4379   49.6656   53.8953 O   0  0  0  0  0  0  0  0  0  0  0  0
   70.7759   51.8352   54.4784 C   0  0  0  0  0  0  0  0  0  0  0  0
   71.4419   50.7412   54.7744 C   0  0  0  0  0  0  0  0  0  0  0  0
   72.1793   50.6569   56.0162 C   0  0  0  0  0  0  0  0  0  0  0  0
   72.8074   49.6270   56.3148 O   0  0  0  0  0  0  0  0  0  0  0  0
   72.2232   51.7100   56.9307 O   0  0  0  0  0  0  0  0  0  0  0  0
 12 13  2  0  0  0
 13 11  1  0  0  0
 13 14  1  0  0  0
  1 11  1  0  0  0
  1  2  1  0  0  0
  1  6  1  0  0  0
  2  3  2  0  0  0
  3  8  1  0  0  0
  3  4  1  0  0  0
  8  9  2  0  0  0
  8 10  1  0  0  0
  4  5  2  0  0  0
  5  6  1  0  0  0
  6  7  1  0  0  0
 14 15  2  0  0  0
 14 16  1  0  0  0
M  END
> <minimizedAffinity>
-6.76036

$$$$
../data/cho_sim50/57759058.pdb


 16 16  0  0  0  0  0  0  0  0999 V2000
   70.1791   49.2541   53.5345 C   0  0  0  0  0  0  0  0  0  0  0  0
   69.4757   48.3854   54.4955 C   0  0  0  0  0  0  0  0  0  0  0  0
   68.9246   47.2156   54.1955 C   0  0  0  0  0  0  0  0  0  0  0  0
   68.9813   46.7213   52.8418 C   0  0  0  0  0  0  0  0  0  0  0  0
   69.5792   47.4359   51.9158 C   0  0  0  0  0  0  0  0  0  0  0  0
   70.2180   48.7398   52.1354 C   0  0  0  0  0  0  0  0  0  0  0  0
   69.5853   49.6451   51.2486 O   0  0  0  0  0  0  0  0  0  0  0  0
   68.2471   46.4256   55.2272 C   0  0  0  0  0  0  0  0  0  0  0  0
   67.8418   46.9888   56.2693 O   0  0  0  0  0  0  0  0  0  0  0  0
   68.0377   45.0625   55.0884 O   0  0  0  0  0  0  0  0  0  0  0  0
   71.4889   49.6198   53.9936 O   0  0  0  0  0  0  0  0  0  0  0  0
   70.7204   51.7181   54.8674 C   0  0  0  0  0  0  0  0  0  0  0  0
   71.6793   50.8773   54.5358 C   0  0  0  0  0  0  0  0  0  0  0  0
   73.0685   51.2989   54.7558 C   0  0  0  0  0  0  0  0  0  0  0  0
   73.3985   52.1925   55.5648 O   0  0  0  0  0  0  0  0  0  0  0  0
   74.1298   50.7020   54.0477 O   0  0  0  0  0  0  0  0  0  0  0  0
 12 13  2  0  0  0
 13 11  1  0  0  0
 13 14  1  0  0  0
  1 11  1  0  0  0
  1  2  1  0  0  0
  1  6  1  0  0  0
  2  3  2  0  0  0
  3  8  1  0  0  0
  3  4  1  0  0  0
  8  9  2  0  0  0
  8 10  1  0  0  0
  4  5  2  0  0  0
  5  6  1  0  0  0
  6  7  1  0  0  0
 14 15  2  0  0  0
 14 16  1  0  0  0
M  END
> <minimizedAffinity>
-6.91655

$$$$
../data/cho_sim50/57759059.pdb


 16 16  0  0  0  0  0  0  0  0999 V2000
   67.8587   47.0754   54.7948 C   0  0  0  0  0  0  0  0  0  0  0  0
   68.7590   48.0072   54.1468 C   0  0  0  0  0  0  0  0  0  0  0  0
   69.2527   47.8320   52.9520 C   0  0  0  0  0  0  0  0  0  0  0  0
   68.8978   46.6284   52.2154 C   0  0  0  0  0  0  0  0  0  0  0  0
   68.1021   45.7267   52.7296 C   0  0  0  0  0  0  0  0  0  0  0  0
   67.5184   45.8555   54.0579 C   0  0  0  0  0  0  0  0  0  0  0  0
   68.0390   44.7220   54.7847 O   0  0  0  0  0  0  0  0  0  0  0  0
   70.1665   48.8205   52.3406 C   0  0  0  0  0  0  0  0  0  0  0  0
   71.2179   49.1161   52.9705 O   0  0  0  0  0  0  0  0  0  0  0  0
   69.8911   49.4009   51.1298 O   0  0  0  0  0  0  0  0  0  0  0  0
   68.3372   46.6990   56.0981 O   0  0  0  0  0  0  0  0  0  0  0  0
   69.8990   47.6064   57.6223 C   0  0  0  0  0  0  0  0  0  0  0  0
   68.6998   47.6104   57.0475 C   0  0  0  0  0  0  0  0  0  0  0  0
   67.7189   48.6187   57.4322 C   0  0  0  0  0  0  0  0  0  0  0  0
   66.5769   48.2593   57.8263 O   0  0  0  0  0  0  0  0  0  0  0  0
   68.0030   49.9726   57.3792 O   0  0  0  0  0  0  0  0  0  0  0  0
 12 13  2  0  0  0
 13 11  1  0  0  0
 13 14  1  0  0  0
  1 11  1  0  0  0
  1  2  1  0  0  0
  1  6  1  0  0  0
  2  3  2  0  0  0
  3  8  1  0  0  0
  3  4  1  0  0  0
  8  9  2  0  0  0
  8 10  1  0  0  0
  4  5  2  0  0  0
  5  6  1  0  0  0
  6  7  1  0  0  0
 14 15  2  0  0  0
 14 16  1  0  0  0
M  END
> <minimizedAffinity>
-6.76287

$$$$
../data/cho_sim50/57759059.pdb


 16 16  0  0  0  0  0  0  0  0999 V2000
   70.1193   49.2240   53.5209 C   0  0  0  0  0  0  0  0  0  0  0  0
   69.4846   48.3779   54.5130 C   0  0  0  0  0  0  0  0  0  0  0  0
   68.9433   47.2264   54.2320 C   0  0  0  0  0  0  0  0  0  0  0  0
   68.9750   46.7450   52.8580 C   0  0  0  0  0  0  0  0  0  0  0  0
   69.5347   47.4424   51.8986 C   0  0  0  0  0  0  0  0  0  0  0  0
   70.1575   48.7373   52.1531 C   0  0  0  0  0  0  0  0  0  0  0  0
   69.6334   49.7292   51.2769 O   0  0  0  0  0  0  0  0  0  0  0  0
   68.3132   46.4180   55.2911 C   0  0  0  0  0  0  0  0  0  0  0  0
   68.0103   46.9386   56.3915 O   0  0  0  0  0  0  0  0  0  0  0  0
   68.0479   45.0918   55.0926 O   0  0  0  0  0  0  0  0  0  0  0  0
   71.4605   49.5783   53.9161 O   0  0  0  0  0  0  0  0  0  0  0  0
   70.6007   51.6425   54.5479 C   0  0  0  0  0  0  0  0  0  0  0  0
   71.6553   50.8586   54.3999 C   0  0  0  0  0  0  0  0  0  0  0  0
   73.0047   51.2853   54.7235 C   0  0  0  0  0  0  0  0  0  0  0  0
   73.1524   52.1809   55.6022 O   0  0  0  0  0  0  0  0  0  0  0  0
   74.0705   50.7045   54.0671 O   0  0  0  0  0  0  0  0  0  0  0  0
 12 13  2  0  0  0
 13 11  1  0  0  0
 13 14  1  0  0  0
  1 11  1  0  0  0
  1  2  1  0  0  0
  1  6  1  0  0  0
  2  3  2  0  0  0
  3  8  1  0  0  0
  3  4  1  0  0  0
  8  9  2  0  0  0
  8 10  1  0  0  0
  4  5  2  0  0  0
  5  6  1  0  0  0
  6  7  1  0  0  0
 14 15  2  0  0  0
 14 16  1  0  0  0
M  END
> <minimizedAffinity>
-6.90891

$$$$
../data/cho_sim50/57759059.pdb


 16 16  0  0  0  0  0  0  0  0999 V2000
   70.1890   49.2501   53.4768 C   0  0  0  0  0  0  0  0  0  0  0  0
   69.4879   48.4648   54.4731 C   0  0  0  0  0  0  0  0  0  0  0  0
   68.9100   47.3184   54.2443 C   0  0  0  0  0  0  0  0  0  0  0  0
   68.9321   46.7265   52.9199 C   0  0  0  0  0  0  0  0  0  0  0  0
   69.5501   47.3849   51.9755 C   0  0  0  0  0  0  0  0  0  0  0  0
   70.2255   48.6692   52.1277 C   0  0  0  0  0  0  0  0  0  0  0  0
   69.6868   49.5308   51.1481 O   0  0  0  0  0  0  0  0  0  0  0  0
   68.2146   46.5844   55.3298 C   0  0  0  0  0  0  0  0  0  0  0  0
   67.7508   47.2458   56.2843 O   0  0  0  0  0  0  0  0  0  0  0  0
   68.0983   45.2229   55.2652 O   0  0  0  0  0  0  0  0  0  0  0  0
   69.6411   50.5691   53.3525 O   0  0  0  0  0  0  0  0  0  0  0  0
   68.9656   52.4167   54.6838 C   0  0  0  0  0  0  0  0  0  0  0  0
   69.8838   51.5613   54.2606 C   0  0  0  0  0  0  0  0  0  0  0  0
   71.2429   51.6825   54.7961 C   0  0  0  0  0  0  0  0  0  0  0  0
   71.5143   51.4416   56.0002 O   0  0  0  0  0  0  0  0  0  0  0  0
   72.3081   52.0741   53.9875 O   0  0  0  0  0  0  0  0  0  0  0  0
 12 13  2  0  0  0
 13 11  1  0  0  0
 13 14  1  0  0  0
  1 11  1  0  0  0
  1  2  1  0  0  0
  1  6  1  0  0  0
  2  3  2  0  0  0
  3  8  1  0  0  0
  3  4  1  0  0  0
  8  9  2  0  0  0
  8 10  1  0  0  0
  4  5  2  0  0  0
  5  6  1  0  0  0
  6  7  1  0  0  0
 14 15  2  0  0  0
 14 16  1  0  0  0
M  END
> <minimizedAffinity>
-6.72060

$$$$
../data/cho_sim50/57759059.pdb


 16 16  0  0  0  0  0  0  0  0999 V2000
   70.1971   49.1937   53.5198 C   0  0  0  0  0  0  0  0  0  0  0  0
   69.5012   48.3952   54.5026 C   0  0  0  0  0  0  0  0  0  0  0  0
   68.9594   47.2344   54.2402 C   0  0  0  0  0  0  0  0  0  0  0  0
   69.0059   46.7260   52.8815 C   0  0  0  0  0  0  0  0  0  0  0  0
   69.5804   47.4206   51.9193 C   0  0  0  0  0  0  0  0  0  0  0  0
   70.1949   48.7256   52.1501 C   0  0  0  0  0  0  0  0  0  0  0  0
   69.6262   49.7007   51.2805 O   0  0  0  0  0  0  0  0  0  0  0  0
   68.2642   46.4446   55.2564 C   0  0  0  0  0  0  0  0  0  0  0  0
   67.8705   47.0166   56.2884 O   0  0  0  0  0  0  0  0  0  0  0  0
   68.0395   45.1014   55.0983 O   0  0  0  0  0  0  0  0  0  0  0  0
   71.4711   49.6486   53.9806 O   0  0  0  0  0  0  0  0  0  0  0  0
   70.8423   51.6878   54.8674 C   0  0  0  0  0  0  0  0  0  0  0  0
   71.7951   50.8427   54.5112 C   0  0  0  0  0  0  0  0  0  0  0  0
   73.1730   51.2378   54.7093 C   0  0  0  0  0  0  0  0  0  0  0  0
   74.0708   50.6686   54.0258 O   0  0  0  0  0  0  0  0  0  0  0  0
   73.6188   52.2026   55.5932 O   0  0  0  0  0  0  0  0  0  0  0  0
 12 13  2  0  0  0
 13 11  1  0  0  0
 13 14  1  0  0  0
  1 11  1  0  0  0
  1  2  1  0  0  0
  1  6  1  0  0  0
  2  3  2  0  0  0
  3  8  1  0  0  0
  3  4  1  0  0  0
  8  9  2  0  0  0
  8 10  1  0  0  0
  4  5  2  0  0  0
  5  6  1  0  0  0
  6  7  1  0  0  0
 14 15  2  0  0  0
 14 16  1  0  0  0
M  END
> <minimizedAffinity>
-6.96238

$$$$
../data/cho_sim50/59477064.pdb


 16 16  0  0  0  0  0  0  0  0999 V2000
   70.6507   49.8656   55.4485 C   0  0  0  0  0  0  0  0  0  0  0  0
   70.5592   49.6164   54.0014 C   0  0  0  0  0  0  0  0  0  0  0  0
   69.8907   48.6398   53.4346 C   0  0  0  0  0  0  0  0  0  0  0  0
   69.1798   47.7260   54.3086 C   0  0  0  0  0  0  0  0  0  0  0  0
   69.1998   47.8650   55.6037 C   0  0  0  0  0  0  0  0  0  0  0  0
   69.9174   48.9228   56.3202 C   0  0  0  0  0  0  0  0  0  0  0  0
   68.9274   49.6869   57.2266 C   0  0  0  0  0  0  0  0  0  0  0  0
   69.8580   48.4739   51.9851 C   0  0  0  0  0  0  0  0  0  0  0  0
   69.8104   49.4824   51.2366 O   0  0  0  0  0  0  0  0  0  0  0  0
   69.8771   47.2277   51.3807 O   0  0  0  0  0  0  0  0  0  0  0  0
   72.0496   49.7782   55.7875 O   0  0  0  0  0  0  0  0  0  0  0  0
   72.6310   51.7324   56.8835 C   0  0  0  0  0  0  0  0  0  0  0  0
   72.8453   50.9057   55.8923 C   0  0  0  0  0  0  0  0  0  0  0  0
   73.8994   51.1607   54.9157 C   0  0  0  0  0  0  0  0  0  0  0  0
   74.0022   50.4708   53.8774 O   0  0  0  0  0  0  0  0  0  0  0  0
   74.8227   52.1775   55.1053 O   0  0  0  0  0  0  0  0  0  0  0  0
 12 13  2  0  0  0
 13 11  1  0  0  0
 13 14  1  0  0  0
  1 11  1  0  0  0
  1  2  1  0  0  0
  1  6  1  0  0  0
  2  3  2  0  0  0
  3  8  1  0  0  0
  3  4  1  0  0  0
  8  9  2  0  0  0
  8 10  1  0  0  0
  4  5  2  0  0  0
  5  6  1  0  0  0
  6  7  1  0  0  0
 14 15  2  0  0  0
 14 16  1  0  0  0
M  END
> <minimizedAffinity>
-6.77283

$$$$
../data/cho_sim50/59477064.pdb


 16 16  0  0  0  0  0  0  0  0999 V2000
   70.6159   49.8483   55.4127 C   0  0  0  0  0  0  0  0  0  0  0  0
   70.5328   49.5291   53.9885 C   0  0  0  0  0  0  0  0  0  0  0  0
   69.8365   48.5618   53.4282 C   0  0  0  0  0  0  0  0  0  0  0  0
   69.0529   47.6996   54.3077 C   0  0  0  0  0  0  0  0  0  0  0  0
   69.0698   47.9137   55.5875 C   0  0  0  0  0  0  0  0  0  0  0  0
   69.8142   48.9645   56.2984 C   0  0  0  0  0  0  0  0  0  0  0  0
   70.7025   48.2490   57.3255 C   0  0  0  0  0  0  0  0  0  0  0  0
   69.8425   48.3525   51.9740 C   0  0  0  0  0  0  0  0  0  0  0  0
   69.8838   47.2291   51.4567 O   0  0  0  0  0  0  0  0  0  0  0  0
   69.8012   49.4681   51.1661 O   0  0  0  0  0  0  0  0  0  0  0  0
   71.9770   49.9408   55.8326 O   0  0  0  0  0  0  0  0  0  0  0  0
   72.3538   52.1969   56.4270 C   0  0  0  0  0  0  0  0  0  0  0  0
   72.6998   51.1263   55.7526 C   0  0  0  0  0  0  0  0  0  0  0  0
   73.8753   51.1850   54.8980 C   0  0  0  0  0  0  0  0  0  0  0  0
   73.9791   50.4672   53.8758 O   0  0  0  0  0  0  0  0  0  0  0  0
   74.9423   52.0448   55.1787 O   0  0  0  0  0  0  0  0  0  0  0  0
 12 13  2  0  0  0
 13 11  1  0  0  0
 13 14  1  0  0  0
  1 11  1  0  0  0
  1  2  1  0  0  0
  1  6  1  0  0  0
  2  3  2  0  0  0
  3  8  1  0  0  0
  3  4  1  0  0  0
  8  9  2  0  0  0
  8 10  1  0  0  0
  4  5  2  0  0  0
  5  6  1  0  0  0
  6  7  1  0  0  0
 14 15  2  0  0  0
 14 16  1  0  0  0
M  END
> <minimizedAffinity>
-6.69046

$$$$
../data/cho_sim50/59477064.pdb


 16 16  0  0  0  0  0  0  0  0999 V2000
   70.6711   49.8505   55.4289 C   0  0  0  0  0  0  0  0  0  0  0  0
   70.5707   49.5471   53.9989 C   0  0  0  0  0  0  0  0  0  0  0  0
   69.8704   48.5842   53.4669 C   0  0  0  0  0  0  0  0  0  0  0  0
   69.1047   47.7091   54.3331 C   0  0  0  0  0  0  0  0  0  0  0  0
   69.1320   47.9030   55.6333 C   0  0  0  0  0  0  0  0  0  0  0  0
   69.8878   48.9548   56.3105 C   0  0  0  0  0  0  0  0  0  0  0  0
   70.7469   48.2879   57.3834 C   0  0  0  0  0  0  0  0  0  0  0  0
   69.8638   48.3975   52.0068 C   0  0  0  0  0  0  0  0  0  0  0  0
   69.8654   49.4021   51.2524 O   0  0  0  0  0  0  0  0  0  0  0  0
   69.8566   47.1479   51.4120 O   0  0  0  0  0  0  0  0  0  0  0  0
   72.0496   49.7988   55.8246 O   0  0  0  0  0  0  0  0  0  0  0  0
   72.4295   51.9108   56.7197 C   0  0  0  0  0  0  0  0  0  0  0  0
   72.7806   50.9937   55.8396 C   0  0  0  0  0  0  0  0  0  0  0  0
   73.8819   51.1848   54.9062 C   0  0  0  0  0  0  0  0  0  0  0  0
   73.9870   50.4972   53.8644 O   0  0  0  0  0  0  0  0  0  0  0  0
   74.8465   52.1440   55.1555 O   0  0  0  0  0  0  0  0  0  0  0  0
 12 13  2  0  0  0
 13 11  1  0  0  0
 13 14  1  0  0  0
  1 11  1  0  0  0
  1  2  1  0  0  0
  1  6  1  0  0  0
  2  3  2  0  0  0
  3  8  1  0  0  0
  3  4  1  0  0  0
  8  9  2  0  0  0
  8 10  1  0  0  0
  4  5  2  0  0  0
  5  6  1  0  0  0
  6  7  1  0  0  0
 14 15  2  0  0  0
 14 16  1  0  0  0
M  END
> <minimizedAffinity>
-6.72428

$$$$
../data/cho_sim50/59477066.pdb


 16 16  0  0  0  0  0  0  0  0999 V2000
   69.1185   49.1170   55.1583 C   0  0  0  0  0  0  0  0  0  0  0  0
   68.8216   48.0713   56.1523 C   0  0  0  0  0  0  0  0  0  0  0  0
   68.6151   46.7384   55.6160 C   0  0  0  0  0  0  0  0  0  0  0  0
   68.6739   46.4255   54.3503 C   0  0  0  0  0  0  0  0  0  0  0  0
   68.9722   47.4933   53.3685 C   0  0  0  0  0  0  0  0  0  0  0  0
   69.1722   48.7211   53.7735 C   0  0  0  0  0  0  0  0  0  0  0  0
   69.4746   49.7904   52.7549 C   0  0  0  0  0  0  0  0  0  0  0  0
   69.0263   47.0860   51.9625 C   0  0  0  0  0  0  0  0  0  0  0  0
   70.1250   47.0110   51.3343 O   0  0  0  0  0  0  0  0  0  0  0  0
   67.8994   46.7589   51.2317 O   0  0  0  0  0  0  0  0  0  0  0  0
   70.3820   49.7219   55.5719 O   0  0  0  0  0  0  0  0  0  0  0  0
   71.3156   51.3860   56.9417 C   0  0  0  0  0  0  0  0  0  0  0  0
   70.3116   50.9659   56.2021 C   0  0  0  0  0  0  0  0  0  0  0  0
   69.1487   51.8250   56.0693 C   0  0  0  0  0  0  0  0  0  0  0  0
   68.2968   51.8790   56.9882 O   0  0  0  0  0  0  0  0  0  0  0  0
   68.9206   52.6163   54.9451 O   0  0  0  0  0  0  0  0  0  0  0  0
 12 13  2  0  0  0
 13 11  1  0  0  0
 13 14  1  0  0  0
  1 11  1  0  0  0
  1  2  1  0  0  0
  1  6  1  0  0  0
  2  3  1  0  0  0
  3  4  2  0  0  0
  4  5  1  0  0  0
  5  8  1  0  0  0
  5  6  2  0  0  0
  8  9  2  0  0  0
  8 10  1  0  0  0
  6  7  1  0  0  0
 14 15  2  0  0  0
 14 16  1  0  0  0
M  END
> <minimizedAffinity>
-6.26909

$$$$
../data/cho_sim50/59477066.pdb


 16 16  0  0  0  0  0  0  0  0999 V2000
   69.1416   49.0466   55.3295 C   0  0  0  0  0  0  0  0  0  0  0  0
   68.8283   47.9442   56.2601 C   0  0  0  0  0  0  0  0  0  0  0  0
   68.6337   46.6276   55.6474 C   0  0  0  0  0  0  0  0  0  0  0  0
   68.7099   46.3416   54.3695 C   0  0  0  0  0  0  0  0  0  0  0  0
   69.0195   47.4276   53.4305 C   0  0  0  0  0  0  0  0  0  0  0  0
   69.2105   48.6442   53.8919 C   0  0  0  0  0  0  0  0  0  0  0  0
   69.5251   49.7036   52.8590 C   0  0  0  0  0  0  0  0  0  0  0  0
   69.1060   47.1107   51.9898 C   0  0  0  0  0  0  0  0  0  0  0  0
   70.1367   47.0571   51.3202 O   0  0  0  0  0  0  0  0  0  0  0  0
   67.8862   46.8453   51.3349 O   0  0  0  0  0  0  0  0  0  0  0  0
   68.2304   50.1111   55.4789 O   0  0  0  0  0  0  0  0  0  0  0  0
   68.3595   51.3957   57.4258 C   0  0  0  0  0  0  0  0  0  0  0  0
   68.5929   51.2723   56.1382 C   0  0  0  0  0  0  0  0  0  0  0  0
   69.2365   52.3912   55.4557 C   0  0  0  0  0  0  0  0  0  0  0  0
   68.7482   52.9042   54.4259 O   0  0  0  0  0  0  0  0  0  0  0  0
   70.4264   52.8700   56.0028 O   0  0  0  0  0  0  0  0  0  0  0  0
 12 13  2  0  0  0
 13 11  1  0  0  0
 13 14  1  0  0  0
  1 11  1  0  0  0
  1  2  1  0  0  0
  1  6  1  0  0  0
  2  3  1  0  0  0
  3  4  2  0  0  0
  4  5  1  0  0  0
  5  8  1  0  0  0
  5  6  2  0  0  0
  8  9  2  0  0  0
  8 10  1  0  0  0
  6  7  1  0  0  0
 14 15  2  0  0  0
 14 16  1  0  0  0
M  END
> <minimizedAffinity>
-6.31507

$$$$
../data/cho_sim50/59477066.pdb


 16 16  0  0  0  0  0  0  0  0999 V2000
   69.3043   49.0325   55.2901 C   0  0  0  0  0  0  0  0  0  0  0  0
   69.0729   47.9577   56.3003 C   0  0  0  0  0  0  0  0  0  0  0  0
   68.7655   46.6306   55.7982 C   0  0  0  0  0  0  0  0  0  0  0  0
   68.7100   46.2778   54.5399 C   0  0  0  0  0  0  0  0  0  0  0  0
   68.9821   47.3439   53.5497 C   0  0  0  0  0  0  0  0  0  0  0  0
   69.2529   48.5727   53.9029 C   0  0  0  0  0  0  0  0  0  0  0  0
   69.5924   49.5961   52.8145 C   0  0  0  0  0  0  0  0  0  0  0  0
   68.9435   47.0055   52.1265 C   0  0  0  0  0  0  0  0  0  0  0  0
   67.7999   46.6751   51.6596 O   0  0  0  0  0  0  0  0  0  0  0  0
   70.0109   47.0181   51.2866 O   0  0  0  0  0  0  0  0  0  0  0  0
   68.3841   50.0819   55.5251 O   0  0  0  0  0  0  0  0  0  0  0  0
   68.0529   51.4518   57.3680 C   0  0  0  0  0  0  0  0  0  0  0  0
   68.5171   51.2743   56.1283 C   0  0  0  0  0  0  0  0  0  0  0  0
   69.1703   52.4241   55.4543 C   0  0  0  0  0  0  0  0  0  0  0  0
   68.7043   52.8770   54.3951 O   0  0  0  0  0  0  0  0  0  0  0  0
   70.2946   53.0081   55.9810 O   0  0  0  0  0  0  0  0  0  0  0  0
 12 13  2  0  0  0
 13 11  1  0  0  0
 13 14  1  0  0  0
  1 11  1  0  0  0
  1  2  1  0  0  0
  1  6  1  0  0  0
  2  3  1  0  0  0
  3  4  2  0  0  0
  4  5  1  0  0  0
  5  8  1  0  0  0
  5  6  2  0  0  0
  8  9  2  0  0  0
  8 10  1  0  0  0
  6  7  1  0  0  0
 14 15  2  0  0  0
 14 16  1  0  0  0
M  END
> <minimizedAffinity>
-6.41825

$$$$
../data/cho_sim50/66679548.pdb


 15 15  0  0  0  0  0  0  0  0999 V2000
   68.7951   46.5207   55.0251 C   0  0  0  0  0  0  0  0  0  0  0  0
   69.3520   47.5887   54.2295 C   0  0  0  0  0  0  0  0  0  0  0  0
   69.1993   47.6870   52.9314 C   0  0  0  0  0  0  0  0  0  0  0  0
   68.4113   46.6680   52.2536 C   0  0  0  0  0  0  0  0  0  0  0  0
   67.8584   45.6734   52.8938 C   0  0  0  0  0  0  0  0  0  0  0  0
   67.9885   45.5139   54.3315 C   0  0  0  0  0  0  0  0  0  0  0  0
   69.7898   48.7983   52.1590 C   0  0  0  0  0  0  0  0  0  0  0  0
   69.6127   49.9924   52.4926 O   0  0  0  0  0  0  0  0  0  0  0  0
   70.5651   48.5598   51.0332 O   0  0  0  0  0  0  0  0  0  0  0  0
   68.0196   47.0044   56.1259 O   0  0  0  0  0  0  0  0  0  0  0  0
   67.9821   49.0013   57.4047 C   0  0  0  0  0  0  0  0  0  0  0  0
   68.5259   47.8611   57.0811 C   0  0  0  0  0  0  0  0  0  0  0  0
   69.7488   47.4463   57.7601 C   0  0  0  0  0  0  0  0  0  0  0  0
   70.8032   48.1577   57.7152 O   0  0  0  0  0  0  0  0  0  0  0  0
   69.8517   46.2700   58.4913 O   0  0  0  0  0  0  0  0  0  0  0  0
 11 12  2  0  0  0
 12 10  1  0  0  0
 12 13  1  0  0  0
  1 10  1  0  0  0
  1  2  1  0  0  0
  1  6  1  0  0  0
  2  3  2  0  0  0
  3  7  1  0  0  0
  3  4  1  0  0  0
  7  8  2  0  0  0
  7  9  1  0  0  0
  4  5  2  0  0  0
  5  6  1  0  0  0
 13 14  2  0  0  0
 13 15  1  0  0  0
M  END
> <minimizedAffinity>
-6.43118

$$$$
../data/cho_sim50/66679548.pdb


 15 15  0  0  0  0  0  0  0  0999 V2000
   70.6740   49.7781   55.3702 C   0  0  0  0  0  0  0  0  0  0  0  0
   70.5888   49.5915   53.9371 C   0  0  0  0  0  0  0  0  0  0  0  0
   69.9083   48.6356   53.3586 C   0  0  0  0  0  0  0  0  0  0  0  0
   69.1730   47.6746   54.1922 C   0  0  0  0  0  0  0  0  0  0  0  0
   69.2042   47.7808   55.4920 C   0  0  0  0  0  0  0  0  0  0  0  0
   69.9343   48.8108   56.1999 C   0  0  0  0  0  0  0  0  0  0  0  0
   69.8333   48.4624   51.9119 C   0  0  0  0  0  0  0  0  0  0  0  0
   69.7818   49.5057   51.2146 O   0  0  0  0  0  0  0  0  0  0  0  0
   69.8182   47.2136   51.3159 O   0  0  0  0  0  0  0  0  0  0  0  0
   72.0534   49.8832   55.7983 O   0  0  0  0  0  0  0  0  0  0  0  0
   72.1192   52.2022   56.1840 C   0  0  0  0  0  0  0  0  0  0  0  0
   72.6382   51.1126   55.6346 C   0  0  0  0  0  0  0  0  0  0  0  0
   73.8515   51.2230   54.8406 C   0  0  0  0  0  0  0  0  0  0  0  0
   74.0230   50.4500   53.8573 O   0  0  0  0  0  0  0  0  0  0  0  0
   74.8439   52.1683   55.1408 O   0  0  0  0  0  0  0  0  0  0  0  0
 11 12  2  0  0  0
 12 10  1  0  0  0
 12 13  1  0  0  0
  1 10  1  0  0  0
  1  2  1  0  0  0
  1  6  1  0  0  0
  2  3  2  0  0  0
  3  7  1  0  0  0
  3  4  1  0  0  0
  7  8  2  0  0  0
  7  9  1  0  0  0
  4  5  2  0  0  0
  5  6  1  0  0  0
 13 14  2  0  0  0
 13 15  1  0  0  0
M  END
> <minimizedAffinity>
-6.50103

$$$$
../data/cho_sim50/66679548.pdb


 15 15  0  0  0  0  0  0  0  0999 V2000
   67.8224   46.9451   54.6578 C   0  0  0  0  0  0  0  0  0  0  0  0
   68.6928   47.9298   54.0244 C   0  0  0  0  0  0  0  0  0  0  0  0
   69.2492   47.8395   52.8338 C   0  0  0  0  0  0  0  0  0  0  0  0
   69.0061   46.6664   52.0330 C   0  0  0  0  0  0  0  0  0  0  0  0
   68.2466   45.7179   52.4924 C   0  0  0  0  0  0  0  0  0  0  0  0
   67.6012   45.7500   53.7949 C   0  0  0  0  0  0  0  0  0  0  0  0
   70.1019   48.9088   52.3286 C   0  0  0  0  0  0  0  0  0  0  0  0
   71.1790   49.2014   52.9042 O   0  0  0  0  0  0  0  0  0  0  0  0
   69.7651   49.6400   51.2032 O   0  0  0  0  0  0  0  0  0  0  0  0
   68.3313   46.4944   55.9077 O   0  0  0  0  0  0  0  0  0  0  0  0
   69.9628   47.1239   57.4386 C   0  0  0  0  0  0  0  0  0  0  0  0
   68.7780   47.3069   56.9015 C   0  0  0  0  0  0  0  0  0  0  0  0
   67.9461   48.3924   57.3832 C   0  0  0  0  0  0  0  0  0  0  0  0
   66.7426   48.2526   57.7310 O   0  0  0  0  0  0  0  0  0  0  0  0
   68.4763   49.6695   57.4789 O   0  0  0  0  0  0  0  0  0  0  0  0
 11 12  2  0  0  0
 12 10  1  0  0  0
 12 13  1  0  0  0
  1 10  1  0  0  0
  1  2  1  0  0  0
  1  6  1  0  0  0
  2  3  2  0  0  0
  3  7  1  0  0  0
  3  4  1  0  0  0
  7  8  2  0  0  0
  7  9  1  0  0  0
  4  5  2  0  0  0
  5  6  1  0  0  0
 13 14  2  0  0  0
 13 15  1  0  0  0
M  END
> <minimizedAffinity>
-6.51341

$$$$
../data/cho_sim50/67149829.pdb


 17 17  0  0  0  0  0  0  0  0999 V2000
   71.0667   49.9976   56.4410 C   0  0  0  0  0  0  0  0  0  0  0  0
   70.2931   49.8712   55.3191 C   0  0  0  0  0  0  0  0  0  0  0  0
   69.7285   48.6978   54.9973 C   0  0  0  0  0  0  0  0  0  0  0  0
   69.1914   47.5813   54.6907 C   0  0  0  0  0  0  0  0  0  0  0  0
   68.5957   46.8636   53.5811 C   0  0  0  0  0  0  0  0  0  0  0  0
   69.2184   47.3357   52.2817 C   0  0  0  0  0  0  0  0  0  0  0  0
   69.1454   46.8106   51.2703 O   0  0  0  0  0  0  0  0  0  0  0  0
   69.9650   48.6316   52.5223 C   0  0  0  0  0  0  0  0  0  0  0  0
   70.1371   49.3101   51.3158 O   0  0  0  0  0  0  0  0  0  0  0  0
   69.0751   49.3968   53.4156 C   0  0  0  0  0  0  0  0  0  0  0  0
   71.7026   51.2363   56.8075 C   0  0  0  0  0  0  0  0  0  0  0  0
   71.0139   52.2997   56.9189 O   0  0  0  0  0  0  0  0  0  0  0  0
   73.0635   51.3222   57.0413 O   0  0  0  0  0  0  0  0  0  0  0  0
   73.9184   50.4209   56.3360 C   0  0  0  0  0  0  0  0  0  0  0  0
   73.9656   50.6017   53.9231 O   0  0  0  0  0  0  0  0  0  0  0  0
   74.2541   51.1027   55.0631 C   0  0  0  0  0  0  0  0  0  0  0  0
   74.9007   52.3124   55.0764 O   0  0  0  0  0  0  0  0  0  0  0  0
 15 16  2  0  0  0
 16 17  1  0  0  0
 16 14  1  0  0  0
 14 13  1  0  0  0
 13 11  1  0  0  0
 11 12  2  0  0  0
 11  1  1  0  0  0
  1  2  2  0  0  0
  2  3  1  0  0  0
  3  4  2  0  0  0
  3 10  1  0  0  0
  4  5  1  0  0  0
  5  6  1  0  0  0
  6  7  2  0  0  0
  6  8  1  0  0  0
  8  9  1  0  0  0
  8 10  1  0  0  0
M  END
> <minimizedAffinity>
-6.56527

$$$$
../data/cho_sim50/67149829.pdb


 17 17  0  0  0  0  0  0  0  0999 V2000
   70.4527   50.0074   54.0521 C   0  0  0  0  0  0  0  0  0  0  0  0
   69.2867   49.4308   54.2206 C   0  0  0  0  0  0  0  0  0  0  0  0
   68.9623   48.0911   53.7130 C   0  0  0  0  0  0  0  0  0  0  0  0
   69.0676   47.8597   52.4123 C   0  0  0  0  0  0  0  0  0  0  0  0
   68.7672   46.5492   51.7776 C   0  0  0  0  0  0  0  0  0  0  0  0
   68.0025   45.7754   52.7672 C   0  0  0  0  0  0  0  0  0  0  0  0
   66.9933   45.2179   52.4453 O   0  0  0  0  0  0  0  0  0  0  0  0
   68.5006   45.7011   54.1485 C   0  0  0  0  0  0  0  0  0  0  0  0
   67.7491   44.8338   54.9356 O   0  0  0  0  0  0  0  0  0  0  0  0
   68.5387   47.0941   54.7086 C   0  0  0  0  0  0  0  0  0  0  0  0
   70.7220   51.3247   54.5699 C   0  0  0  0  0  0  0  0  0  0  0  0
   69.9748   51.8893   55.4025 O   0  0  0  0  0  0  0  0  0  0  0  0
   71.8516   52.0003   54.1359 O   0  0  0  0  0  0  0  0  0  0  0  0
   72.8696   52.3709   55.0391 C   0  0  0  0  0  0  0  0  0  0  0  0
   75.1792   52.0137   55.1897 O   0  0  0  0  0  0  0  0  0  0  0  0
   74.0924   51.6068   54.6960 C   0  0  0  0  0  0  0  0  0  0  0  0
   74.0321   50.5123   53.8791 O   0  0  0  0  0  0  0  0  0  0  0  0
 15 16  2  0  0  0
 16 17  1  0  0  0
 16 14  1  0  0  0
 14 13  1  0  0  0
 13 11  1  0  0  0
 11 12  2  0  0  0
 11  1  1  0  0  0
  1  2  2  0  0  0
  2  3  1  0  0  0
  3  4  2  0  0  0
  3 10  1  0  0  0
  4  5  1  0  0  0
  5  6  1  0  0  0
  6  7  2  0  0  0
  6  8  1  0  0  0
  8  9  1  0  0  0
  8 10  1  0  0  0
M  END
> <minimizedAffinity>
-6.75834

$$$$
../data/cho_sim50/70627842.pdb


 13 13  0  0  0  0  0  0  0  0999 V2000
   67.2695   45.8791   51.1953 C   0  0  0  0  0  0  0  0  0  0  0  0
   68.5514   46.2265   51.9580 C   0  0  0  0  0  0  0  0  0  0  0  0
   68.3916   45.9568   53.3905 C   0  0  0  0  0  0  0  0  0  0  0  0
   68.6447   46.8597   54.3004 C   0  0  0  0  0  0  0  0  0  0  0  0
   69.1056   48.1985   53.9614 C   0  0  0  0  0  0  0  0  0  0  0  0
   69.2518   48.4461   52.6580 C   0  0  0  0  0  0  0  0  0  0  0  0
   68.9879   47.5052   51.7018 O   0  0  0  0  0  0  0  0  0  0  0  0
   68.4538   46.4940   55.7246 C   0  0  0  0  0  0  0  0  0  0  0  0
   67.9826   47.3521   56.5051 O   0  0  0  0  0  0  0  0  0  0  0  0
   68.7878   45.2312   56.1974 O   0  0  0  0  0  0  0  0  0  0  0  0
   69.7151   49.7889   52.2858 C   0  0  0  0  0  0  0  0  0  0  0  0
   70.1807   50.5448   53.1467 O   0  0  0  0  0  0  0  0  0  0  0  0
   69.6188   50.1870   50.9546 O   0  0  0  0  0  0  0  0  0  0  0  0
  2  1  1  0  0  0
  2  3  1  0  0  0
  2  7  1  0  0  0
  3  4  2  0  0  0
  4  8  1  0  0  0
  4  5  1  0  0  0
  8  9  2  0  0  0
  8 10  1  0  0  0
  5  6  2  0  0  0
  6 11  1  0  0  0
  6  7  1  0  0  0
 11 12  2  0  0  0
 11 13  1  0  0  0
M  END
> <minimizedAffinity>
-6.22999

$$$$
../data/cho_sim50/70657798.pdb


 16 16  0  0  0  0  0  0  0  0999 V2000
   70.1187   49.3580   53.5391 C   0  0  0  0  0  0  0  0  0  0  0  0
   69.4543   48.4943   54.5289 C   0  0  0  0  0  0  0  0  0  0  0  0
   68.9448   47.3181   54.2660 C   0  0  0  0  0  0  0  0  0  0  0  0
   69.0224   46.7965   52.9153 C   0  0  0  0  0  0  0  0  0  0  0  0
   69.5914   47.4824   51.9620 C   0  0  0  0  0  0  0  0  0  0  0  0
   70.1884   48.8068   52.1640 C   0  0  0  0  0  0  0  0  0  0  0  0
   69.6308   49.6625   51.2078 O   0  0  0  0  0  0  0  0  0  0  0  0
   68.2990   46.5368   55.3436 C   0  0  0  0  0  0  0  0  0  0  0  0
   67.9858   47.1142   56.4241 O   0  0  0  0  0  0  0  0  0  0  0  0
   68.0672   45.2030   55.1158 O   0  0  0  0  0  0  0  0  0  0  0  0
   71.4098   49.6478   54.0547 O   0  0  0  0  0  0  0  0  0  0  0  0
   70.8817   51.7755   54.8286 C   0  0  0  0  0  0  0  0  0  0  0  0
   71.7898   50.8783   54.5364 C   0  0  0  0  0  0  0  0  0  0  0  0
   73.1860   51.1785   54.7185 C   0  0  0  0  0  0  0  0  0  0  0  0
   74.0766   50.6396   54.0201 O   0  0  0  0  0  0  0  0  0  0  0  0
   73.5585   52.0876   55.6930 O   0  0  0  0  0  0  0  0  0  0  0  0
 12 13  2  0  0  0
 13 11  1  0  0  0
 13 14  1  0  0  0
  1 11  1  0  0  0
  1  2  1  0  0  0
  1  6  1  0  0  0
  2  3  2  0  0  0
  3  8  1  0  0  0
  3  4  1  0  0  0
  8  9  2  0  0  0
  8 10  1  0  0  0
  4  5  2  0  0  0
  5  6  1  0  0  0
  6  7  1  0  0  0
 14 15  2  0  0  0
 14 16  1  0  0  0
M  END
> <minimizedAffinity>
-6.91496

$$$$
../data/cho_sim50/70657798.pdb


 16 16  0  0  0  0  0  0  0  0999 V2000
   69.3727   48.7475   55.7950 C   0  0  0  0  0  0  0  0  0  0  0  0
   69.6741   48.7973   54.3476 C   0  0  0  0  0  0  0  0  0  0  0  0
   69.4035   47.8768   53.4668 C   0  0  0  0  0  0  0  0  0  0  0  0
   68.7362   46.6593   53.9006 C   0  0  0  0  0  0  0  0  0  0  0  0
   68.4325   46.5343   55.1663 C   0  0  0  0  0  0  0  0  0  0  0  0
   68.6933   47.5063   56.2271 C   0  0  0  0  0  0  0  0  0  0  0  0
   67.4542   47.7477   56.8659 O   0  0  0  0  0  0  0  0  0  0  0  0
   69.7514   48.0328   52.0456 C   0  0  0  0  0  0  0  0  0  0  0  0
   69.8485   47.0369   51.2950 O   0  0  0  0  0  0  0  0  0  0  0  0
   69.9778   49.2756   51.5102 O   0  0  0  0  0  0  0  0  0  0  0  0
   68.5832   49.8638   56.1449 O   0  0  0  0  0  0  0  0  0  0  0  0
   69.6570   51.1281   57.8461 C   0  0  0  0  0  0  0  0  0  0  0  0
   69.0764   51.0564   56.6504 C   0  0  0  0  0  0  0  0  0  0  0  0
   68.9676   52.2716   55.8742 C   0  0  0  0  0  0  0  0  0  0  0  0
   69.2551   53.3931   56.3986 O   0  0  0  0  0  0  0  0  0  0  0  0
   68.5459   52.1849   54.5567 O   0  0  0  0  0  0  0  0  0  0  0  0
 12 13  2  0  0  0
 13 11  1  0  0  0
 13 14  1  0  0  0
  1 11  1  0  0  0
  1  2  1  0  0  0
  1  6  1  0  0  0
  2  3  2  0  0  0
  3  8  1  0  0  0
  3  4  1  0  0  0
  8  9  2  0  0  0
  8 10  1  0  0  0
  4  5  2  0  0  0
  5  6  1  0  0  0
  6  7  1  0  0  0
 14 15  2  0  0  0
 14 16  1  0  0  0
M  END
> <minimizedAffinity>
-6.79617

$$$$
../data/cho_sim50/70657798.pdb


 16 16  0  0  0  0  0  0  0  0999 V2000
   69.3049   48.6820   55.7506 C   0  0  0  0  0  0  0  0  0  0  0  0
   69.7018   48.7238   54.3361 C   0  0  0  0  0  0  0  0  0  0  0  0
   69.3622   47.8778   53.4052 C   0  0  0  0  0  0  0  0  0  0  0  0
   68.5075   46.7782   53.7872 C   0  0  0  0  0  0  0  0  0  0  0  0
   68.0966   46.6475   55.0243 C   0  0  0  0  0  0  0  0  0  0  0  0
   68.4438   47.5593   56.0983 C   0  0  0  0  0  0  0  0  0  0  0  0
   69.1283   46.7975   57.0902 O   0  0  0  0  0  0  0  0  0  0  0  0
   69.8097   47.9992   52.0072 C   0  0  0  0  0  0  0  0  0  0  0  0
   69.8963   46.9492   51.3310 O   0  0  0  0  0  0  0  0  0  0  0  0
   70.1168   49.2240   51.4760 O   0  0  0  0  0  0  0  0  0  0  0  0
   68.7256   49.9572   56.1126 O   0  0  0  0  0  0  0  0  0  0  0  0
   69.2773   50.4673   58.3128 C   0  0  0  0  0  0  0  0  0  0  0  0
   68.3502   50.2229   57.4129 C   0  0  0  0  0  0  0  0  0  0  0  0
   66.9577   50.2459   57.8448 C   0  0  0  0  0  0  0  0  0  0  0  0
   66.1989   51.2092   57.5054 O   0  0  0  0  0  0  0  0  0  0  0  0
   66.3942   49.2621   58.6213 O   0  0  0  0  0  0  0  0  0  0  0  0
 12 13  2  0  0  0
 13 11  1  0  0  0
 13 14  1  0  0  0
  1 11  1  0  0  0
  1  2  1  0  0  0
  1  6  1  0  0  0
  2  3  2  0  0  0
  3  8  1  0  0  0
  3  4  1  0  0  0
  8  9  2  0  0  0
  8 10  1  0  0  0
  4  5  2  0  0  0
  5  6  1  0  0  0
  6  7  1  0  0  0
 14 15  2  0  0  0
 14 16  1  0  0  0
M  END
> <minimizedAffinity>
-6.79081

$$$$
../data/cho_sim50/74374535.pdb


 18 18  0  0  0  0  0  0  0  0999 V2000
   69.9210   49.1957   53.9414 C   0  0  0  0  0  0  0  0  0  0  0  0
   69.3712   48.5393   55.0453 C   0  0  0  0  0  0  0  0  0  0  0  0
   68.7436   47.4089   54.9435 O   0  0  0  0  0  0  0  0  0  0  0  0
   68.5895   46.8158   53.7844 C   0  0  0  0  0  0  0  0  0  0  0  0
   69.0942   47.3824   52.6379 C   0  0  0  0  0  0  0  0  0  0  0  0
   69.7760   48.6049   52.7307 C   0  0  0  0  0  0  0  0  0  0  0  0
   70.2207   49.0878   51.6686 O   0  0  0  0  0  0  0  0  0  0  0  0
   67.8823   45.5497   53.6957 C   0  0  0  0  0  0  0  0  0  0  0  0
   67.8897   44.7792   54.6823 O   0  0  0  0  0  0  0  0  0  0  0  0
   67.2033   45.2060   52.5104 O   0  0  0  0  0  0  0  0  0  0  0  0
   71.7479   50.6432   54.7000 C   0  0  0  0  0  0  0  0  0  0  0  0
   70.6132   50.4557   54.1034 C   0  0  0  0  0  0  0  0  0  0  0  0
   72.2992   52.0161   54.7631 C   0  0  0  0  0  0  0  0  0  0  0  0
   73.0060   52.5133   53.8552 O   0  0  0  0  0  0  0  0  0  0  0  0
   72.0455   52.8337   55.8717 O   0  0  0  0  0  0  0  0  0  0  0  0
   73.1985   54.1105   57.5814 C   0  0  0  0  0  0  0  0  0  0  0  0
   72.8292   52.7600   57.0314 C   0  0  0  0  0  0  0  0  0  0  0  0
   71.9675   52.0722   58.0978 C   0  0  0  0  0  0  0  0  0  0  0  0
 16 17  1  0  0  0
 17 18  1  0  0  0
 17 15  1  0  0  0
 15 13  1  0  0  0
 13 14  2  0  0  0
 13 11  1  0  0  0
 11 12  2  0  0  0
 12  1  1  0  0  0
  1  2  2  0  0  0
  1  6  1  0  0  0
  2  3  1  0  0  0
  3  4  1  0  0  0
  4  8  1  0  0  0
  4  5  2  0  0  0
  8  9  2  0  0  0
  8 10  1  0  0  0
  5  6  1  0  0  0
  6  7  2  0  0  0
M  END
> <minimizedAffinity>
-6.47263

$$$$
../data/cho_sim50/74374535.pdb


 18 18  0  0  0  0  0  0  0  0999 V2000
   69.8992   49.2218   53.8760 C   0  0  0  0  0  0  0  0  0  0  0  0
   69.3332   48.5938   54.9950 C   0  0  0  0  0  0  0  0  0  0  0  0
   68.7165   47.4725   54.8731 O   0  0  0  0  0  0  0  0  0  0  0  0
   68.5521   46.8214   53.7570 C   0  0  0  0  0  0  0  0  0  0  0  0
   69.0804   47.3739   52.6142 C   0  0  0  0  0  0  0  0  0  0  0  0
   69.7638   48.5929   52.6748 C   0  0  0  0  0  0  0  0  0  0  0  0
   70.2406   49.0877   51.6265 O   0  0  0  0  0  0  0  0  0  0  0  0
   67.8484   45.5562   53.6632 C   0  0  0  0  0  0  0  0  0  0  0  0
   67.8599   44.7949   54.6581 O   0  0  0  0  0  0  0  0  0  0  0  0
   67.1670   45.1513   52.5304 O   0  0  0  0  0  0  0  0  0  0  0  0
   71.6999   50.6725   54.6954 C   0  0  0  0  0  0  0  0  0  0  0  0
   70.5843   50.4835   54.0601 C   0  0  0  0  0  0  0  0  0  0  0  0
   72.2989   52.0214   54.8124 C   0  0  0  0  0  0  0  0  0  0  0  0
   73.0123   52.5035   53.8987 O   0  0  0  0  0  0  0  0  0  0  0  0
   72.0721   52.7563   55.9353 O   0  0  0  0  0  0  0  0  0  0  0  0
   73.1947   54.0115   57.5790 C   0  0  0  0  0  0  0  0  0  0  0  0
   72.8214   52.5886   57.1409 C   0  0  0  0  0  0  0  0  0  0  0  0
   71.8794   51.9566   58.1506 C   0  0  0  0  0  0  0  0  0  0  0  0
 16 17  1  0  0  0
 17 18  1  0  0  0
 17 15  1  0  0  0
 15 13  1  0  0  0
 13 14  2  0  0  0
 13 11  1  0  0  0
 11 12  2  0  0  0
 12  1  1  0  0  0
  1  2  2  0  0  0
  1  6  1  0  0  0
  2  3  1  0  0  0
  3  4  1  0  0  0
  4  8  1  0  0  0
  4  5  2  0  0  0
  8  9  2  0  0  0
  8 10  1  0  0  0
  5  6  1  0  0  0
  6  7  2  0  0  0
M  END
> <minimizedAffinity>
-6.45975

$$$$
../data/cho_sim50/88700420.pdb


 20 22  0  0  0  0  0  0  0  0999 V2000
   72.6848   51.6998   55.0025 C   0  0  0  0  0  0  0  0  0  0  0  0
   72.5316   51.3191   56.2545 C   0  0  0  0  0  0  0  0  0  0  0  0
   71.6026   50.2805   56.6740 C   0  0  0  0  0  0  0  0  0  0  0  0
   70.8564   49.7112   55.7251 C   0  0  0  0  0  0  0  0  0  0  0  0
   69.9318   48.6483   56.0739 C   0  0  0  0  0  0  0  0  0  0  0  0
   69.4268   47.9274   55.0894 C   0  0  0  0  0  0  0  0  0  0  0  0
   68.5638   46.8855   55.4344 C   0  0  0  0  0  0  0  0  0  0  0  0
   67.9283   46.1903   54.4352 C   0  0  0  0  0  0  0  0  0  0  0  0
   68.0915   46.4615   53.0948 C   0  0  0  0  0  0  0  0  0  0  0  0
   68.9404   47.4947   52.7754 C   0  0  0  0  0  0  0  0  0  0  0  0
   69.6089   48.2374   53.7630 C   0  0  0  0  0  0  0  0  0  0  0  0
   70.3003   49.3217   53.3886 C   0  0  0  0  0  0  0  0  0  0  0  0
   70.8582   50.2261   54.3475 C   0  0  0  0  0  0  0  0  0  0  0  0
   71.9235   51.0364   54.0325 O   0  0  0  0  0  0  0  0  0  0  0  0
   74.2961   53.3615   55.4888 O   0  0  0  0  0  0  0  0  0  0  0  0
   73.6238   52.7642   54.6180 C   0  0  0  0  0  0  0  0  0  0  0  0
   73.7861   53.1309   53.2963 O   0  0  0  0  0  0  0  0  0  0  0  0
   67.3950   45.6864   52.0593 C   0  0  0  0  0  0  0  0  0  0  0  0
   67.2533   46.1814   50.9321 O   0  0  0  0  0  0  0  0  0  0  0  0
   66.8908   44.4238   52.2998 O   0  0  0  0  0  0  0  0  0  0  0  0
 15 16  2  0  0  0
 16 17  1  0  0  0
 16  1  1  0  0  0
  1  2  2  0  0  0
  1 14  1  0  0  0
  2  3  1  0  0  0
  3  4  2  0  0  0
  4  5  1  0  0  0
  4 13  1  0  0  0
  5  6  2  0  0  0
  6  7  1  0  0  0
  6 11  1  0  0  0
  7  8  2  0  0  0
  8  9  1  0  0  0
  9 18  1  0  0  0
  9 10  2  0  0  0
 18 19  2  0  0  0
 18 20  1  0  0  0
 10 11  1  0  0  0
 11 12  2  0  0  0
 12 13  1  0  0  0
 13 14  1  0  0  0
M  END
> <minimizedAffinity>
-8.42911

$$$$
../data/cho_sim50/88700862.pdb


 20 22  0  0  0  0  0  0  0  0999 V2000
   71.5784   51.6750   57.2912 C   0  0  0  0  0  0  0  0  0  0  0  0
   70.7649   51.0877   58.1299 C   0  0  0  0  0  0  0  0  0  0  0  0
   69.8391   50.0755   57.6520 C   0  0  0  0  0  0  0  0  0  0  0  0
   69.7918   49.7531   56.3357 C   0  0  0  0  0  0  0  0  0  0  0  0
   68.9004   48.7265   55.8302 C   0  0  0  0  0  0  0  0  0  0  0  0
   69.1224   48.2697   54.6088 C   0  0  0  0  0  0  0  0  0  0  0  0
   68.3142   47.2795   54.1261 C   0  0  0  0  0  0  0  0  0  0  0  0
   68.4137   46.8523   52.8247 C   0  0  0  0  0  0  0  0  0  0  0  0
   69.3548   47.4498   52.0138 C   0  0  0  0  0  0  0  0  0  0  0  0
   70.1890   48.4544   52.4516 C   0  0  0  0  0  0  0  0  0  0  0  0
   70.0543   48.8664   53.7791 C   0  0  0  0  0  0  0  0  0  0  0  0
   70.7681   49.9350   54.1148 C   0  0  0  0  0  0  0  0  0  0  0  0
   70.5728   50.5690   55.4104 C   0  0  0  0  0  0  0  0  0  0  0  0
   71.5975   51.3285   55.9355 O   0  0  0  0  0  0  0  0  0  0  0  0
   73.6335   52.4262   58.1815 O   0  0  0  0  0  0  0  0  0  0  0  0
   72.4996   52.6984   57.7491 C   0  0  0  0  0  0  0  0  0  0  0  0
   72.1315   54.0380   57.7147 O   0  0  0  0  0  0  0  0  0  0  0  0
   67.5377   45.8018   52.3562 C   0  0  0  0  0  0  0  0  0  0  0  0
   67.1746   44.8837   53.1203 O   0  0  0  0  0  0  0  0  0  0  0  0
   67.0976   45.8118   51.0535 O   0  0  0  0  0  0  0  0  0  0  0  0
 15 16  2  0  0  0
 16 17  1  0  0  0
 16  1  1  0  0  0
  1  2  2  0  0  0
  1 14  1  0  0  0
  2  3  1  0  0  0
  3  4  2  0  0  0
  4  5  1  0  0  0
  4 13  1  0  0  0
  5  6  2  0  0  0
  6  7  1  0  0  0
  6 11  1  0  0  0
  7  8  2  0  0  0
  8 18  1  0  0  0
  8  9  1  0  0  0
 18 19  2  0  0  0
 18 20  1  0  0  0
  9 10  2  0  0  0
 10 11  1  0  0  0
 11 12  2  0  0  0
 12 13  1  0  0  0
 13 14  1  0  0  0
M  END
> <minimizedAffinity>
-8.08423

$$$$
../data/cho_sim50/89165212.pdb


 14 14  0  0  0  0  0  0  0  0999 V2000
   70.0414   49.4150   53.5467 C   0  0  0  0  0  0  0  0  0  0  0  0
   69.3066   48.6635   54.5677 C   0  0  0  0  0  0  0  0  0  0  0  0
   68.7908   47.4789   54.3611 C   0  0  0  0  0  0  0  0  0  0  0  0
   68.9622   46.8896   53.0442 C   0  0  0  0  0  0  0  0  0  0  0  0
   69.6004   47.4767   52.0633 C   0  0  0  0  0  0  0  0  0  0  0  0
   70.2041   48.8039   52.2193 C   0  0  0  0  0  0  0  0  0  0  0  0
   69.6744   49.6970   51.2491 O   0  0  0  0  0  0  0  0  0  0  0  0
   68.0758   46.7820   55.4044 C   0  0  0  0  0  0  0  0  0  0  0  0
   68.4503   45.6709   55.8645 O   0  0  0  0  0  0  0  0  0  0  0  0
   71.3529   49.6344   54.0860 O   0  0  0  0  0  0  0  0  0  0  0  0
   70.8385   51.8094   54.7265 C   0  0  0  0  0  0  0  0  0  0  0  0
   71.7501   50.8867   54.5180 C   0  0  0  0  0  0  0  0  0  0  0  0
   73.1656   51.1470   54.7279 C   0  0  0  0  0  0  0  0  0  0  0  0
   74.0225   50.6142   53.9571 O   0  0  0  0  0  0  0  0  0  0  0  0
 11 12  2  0  0  0
 12 13  1  0  0  0
 12 10  1  0  0  0
 13 14  2  0  0  0
  1 10  1  0  0  0
  1  2  1  0  0  0
  1  6  1  0  0  0
  2  3  2  0  0  0
  3  8  1  0  0  0
  3  4  1  0  0  0
  8  9  2  0  0  0
  4  5  2  0  0  0
  5  6  1  0  0  0
  6  7  1  0  0  0
M  END
> <minimizedAffinity>
-6.10768

$$$$
../data/cho_sim50/89197328.pdb


 18 18  0  0  0  0  0  0  0  0999 V2000
   70.0564   49.3686   53.5148 C   0  0  0  0  0  0  0  0  0  0  0  0
   69.3816   48.4734   54.4520 C   0  0  0  0  0  0  0  0  0  0  0  0
   68.9383   47.2766   54.1812 C   0  0  0  0  0  0  0  0  0  0  0  0
   69.1356   46.8038   52.8211 C   0  0  0  0  0  0  0  0  0  0  0  0
   69.7227   47.5225   51.9005 C   0  0  0  0  0  0  0  0  0  0  0  0
   70.2353   48.8669   52.1471 C   0  0  0  0  0  0  0  0  0  0  0  0
   69.5540   49.6898   51.1978 O   0  0  0  0  0  0  0  0  0  0  0  0
   68.2783   46.4708   55.1980 C   0  0  0  0  0  0  0  0  0  0  0  0
   67.9036   47.0263   56.2520 O   0  0  0  0  0  0  0  0  0  0  0  0
   68.0403   45.1120   55.0613 O   0  0  0  0  0  0  0  0  0  0  0  0
   71.3713   49.6182   54.0521 O   0  0  0  0  0  0  0  0  0  0  0  0
   70.7839   51.6670   54.9807 C   0  0  0  0  0  0  0  0  0  0  0  0
   71.7141   50.8457   54.5806 C   0  0  0  0  0  0  0  0  0  0  0  0
   73.1196   51.1903   54.6757 C   0  0  0  0  0  0  0  0  0  0  0  0
   73.9683   50.5533   53.9637 O   0  0  0  0  0  0  0  0  0  0  0  0
   73.6177   52.1716   55.4916 O   0  0  0  0  0  0  0  0  0  0  0  0
   74.1163   53.4063   55.0437 C   0  0  0  0  0  0  0  0  0  0  0  0
   73.1914   54.5066   55.5319 C   0  0  0  0  0  0  0  0  0  0  0  0
 12 13  2  0  0  0
 13 11  1  0  0  0
 13 14  1  0  0  0
  1 11  1  0  0  0
  1  2  1  0  0  0
  1  6  1  0  0  0
  2  3  2  0  0  0
  3  8  1  0  0  0
  3  4  1  0  0  0
  8  9  2  0  0  0
  8 10  1  0  0  0
  4  5  2  0  0  0
  5  6  1  0  0  0
  6  7  1  0  0  0
 14 15  2  0  0  0
 14 16  1  0  0  0
 16 17  1  0  0  0
 17 18  1  0  0  0
M  END
> <minimizedAffinity>
-6.91362

$$$$
../data/cho_sim50/89197328.pdb


 18 18  0  0  0  0  0  0  0  0999 V2000
   69.5377   48.5703   55.8069 C   0  0  0  0  0  0  0  0  0  0  0  0
   69.8041   48.6789   54.3795 C   0  0  0  0  0  0  0  0  0  0  0  0
   69.4085   47.8609   53.4360 C   0  0  0  0  0  0  0  0  0  0  0  0
   68.6546   46.6742   53.8006 C   0  0  0  0  0  0  0  0  0  0  0  0
   68.4212   46.4960   55.0822 C   0  0  0  0  0  0  0  0  0  0  0  0
   68.8277   47.3432   56.1907 C   0  0  0  0  0  0  0  0  0  0  0  0
   67.6414   47.6766   56.8902 O   0  0  0  0  0  0  0  0  0  0  0  0
   69.7385   48.0806   52.0356 C   0  0  0  0  0  0  0  0  0  0  0  0
   69.8748   47.1104   51.2730 O   0  0  0  0  0  0  0  0  0  0  0  0
   69.8920   49.3663   51.5820 O   0  0  0  0  0  0  0  0  0  0  0  0
   70.6795   48.8429   56.5860 O   0  0  0  0  0  0  0  0  0  0  0  0
   71.2847   48.3491   58.7895 C   0  0  0  0  0  0  0  0  0  0  0  0
   70.8192   49.1613   57.8798 C   0  0  0  0  0  0  0  0  0  0  0  0
   70.4238   50.5134   58.3030 C   0  0  0  0  0  0  0  0  0  0  0  0
   71.2818   51.4023   58.5076 O   0  0  0  0  0  0  0  0  0  0  0  0
   69.0953   50.8554   58.4905 O   0  0  0  0  0  0  0  0  0  0  0  0
   68.3785   51.5104   57.4706 C   0  0  0  0  0  0  0  0  0  0  0  0
   66.9397   51.0738   57.3892 C   0  0  0  0  0  0  0  0  0  0  0  0
 12 13  2  0  0  0
 13 11  1  0  0  0
 13 14  1  0  0  0
  1 11  1  0  0  0
  1  2  1  0  0  0
  1  6  1  0  0  0
  2  3  2  0  0  0
  3  8  1  0  0  0
  3  4  1  0  0  0
  8  9  2  0  0  0
  8 10  1  0  0  0
  4  5  2  0  0  0
  5  6  1  0  0  0
  6  7  1  0  0  0
 14 15  2  0  0  0
 14 16  1  0  0  0
 16 17  1  0  0  0
 17 18  1  0  0  0
M  END
> <minimizedAffinity>
-6.79546

$$$$
../data/cho_sim50/89197328.pdb


 18 18  0  0  0  0  0  0  0  0999 V2000
   69.5858   49.0293   53.6119 C   0  0  0  0  0  0  0  0  0  0  0  0
   69.3048   48.0388   54.6295 C   0  0  0  0  0  0  0  0  0  0  0  0
   68.8370   46.8459   54.3706 C   0  0  0  0  0  0  0  0  0  0  0  0
   68.5718   46.4515   52.9813 C   0  0  0  0  0  0  0  0  0  0  0  0
   68.8061   47.3004   52.0132 C   0  0  0  0  0  0  0  0  0  0  0  0
   69.3249   48.6414   52.2237 C   0  0  0  0  0  0  0  0  0  0  0  0
   70.5497   48.6621   51.4568 O   0  0  0  0  0  0  0  0  0  0  0  0
   68.5757   45.8982   55.4454 C   0  0  0  0  0  0  0  0  0  0  0  0
   68.8173   46.1859   56.6300 O   0  0  0  0  0  0  0  0  0  0  0  0
   68.0498   44.6539   55.1499 O   0  0  0  0  0  0  0  0  0  0  0  0
   70.9479   49.4636   53.8084 O   0  0  0  0  0  0  0  0  0  0  0  0
   70.3607   51.5852   54.6129 C   0  0  0  0  0  0  0  0  0  0  0  0
   71.2664   50.6596   54.3854 C   0  0  0  0  0  0  0  0  0  0  0  0
   72.6400   50.9301   54.7639 C   0  0  0  0  0  0  0  0  0  0  0  0
   73.1791   50.3379   55.7376 O   0  0  0  0  0  0  0  0  0  0  0  0
   73.3989   51.8599   54.0508 O   0  0  0  0  0  0  0  0  0  0  0  0
   74.1635   52.8140   54.8035 C   0  0  0  0  0  0  0  0  0  0  0  0
   73.3339   53.9646   55.2709 C   0  0  0  0  0  0  0  0  0  0  0  0
 12 13  2  0  0  0
 13 11  1  0  0  0
 13 14  1  0  0  0
  1 11  1  0  0  0
  1  2  1  0  0  0
  1  6  1  0  0  0
  2  3  2  0  0  0
  3  8  1  0  0  0
  3  4  1  0  0  0
  8  9  2  0  0  0
  8 10  1  0  0  0
  4  5  2  0  0  0
  5  6  1  0  0  0
  6  7  1  0  0  0
 14 15  2  0  0  0
 14 16  1  0  0  0
 16 17  1  0  0  0
 17 18  1  0  0  0
M  END
> <minimizedAffinity>
-6.76138

$$$$
../data/cho_sim50/89936619.pdb


 16 16  0  0  0  0  0  0  0  0999 V2000
   70.2170   49.2677   53.5761 C   0  0  0  0  0  0  0  0  0  0  0  0
   69.5824   48.5531   54.6441 C   0  0  0  0  0  0  0  0  0  0  0  0
   68.9361   47.4264   54.5131 C   0  0  0  0  0  0  0  0  0  0  0  0
   68.8532   46.8362   53.1813 C   0  0  0  0  0  0  0  0  0  0  0  0
   69.4141   47.4228   52.1439 C   0  0  0  0  0  0  0  0  0  0  0  0
   70.1492   48.6795   52.2347 C   0  0  0  0  0  0  0  0  0  0  0  0
   69.6252   49.6169   51.3061 O   0  0  0  0  0  0  0  0  0  0  0  0
   68.3065   46.7393   55.6316 C   0  0  0  0  0  0  0  0  0  0  0  0
   68.2746   45.4815   55.7020 O   0  0  0  0  0  0  0  0  0  0  0  0
   67.7271   47.4803   56.6476 O   0  0  0  0  0  0  0  0  0  0  0  0
   71.5450   49.6991   53.9109 O   0  0  0  0  0  0  0  0  0  0  0  0
   71.8573   50.8798   54.5139 C   0  0  0  0  0  0  0  0  0  0  0  0
   70.9073   51.6324   54.8648 O   0  0  0  0  0  0  0  0  0  0  0  0
   74.1595   50.6742   54.0871 O   0  0  0  0  0  0  0  0  0  0  0  0
   73.2496   51.2465   54.7408 C   0  0  0  0  0  0  0  0  0  0  0  0
   73.6343   52.2103   55.6526 O   0  0  0  0  0  0  0  0  0  0  0  0
 14 15  2  0  0  0
 15 16  1  0  0  0
 15 12  1  0  0  0
 12 13  2  0  0  0
 12 11  1  0  0  0
  1 11  1  0  0  0
  1  2  1  0  0  0
  1  6  1  0  0  0
  2  3  2  0  0  0
  3  8  1  0  0  0
  3  4  1  0  0  0
  8  9  2  0  0  0
  8 10  1  0  0  0
  4  5  2  0  0  0
  5  6  1  0  0  0
  6  7  1  0  0  0
M  END
> <minimizedAffinity>
-6.95765

$$$$
../data/cho_sim50/90145918.pdb


 18 18  0  0  0  0  0  0  0  0999 V2000
   69.6462   48.7645   53.5407 C   0  0  0  0  0  0  0  0  0  0  0  0
   69.3457   47.7523   54.5685 C   0  0  0  0  0  0  0  0  0  0  0  0
   68.8068   46.5945   54.3253 C   0  0  0  0  0  0  0  0  0  0  0  0
   68.4614   46.2376   52.9631 C   0  0  0  0  0  0  0  0  0  0  0  0
   68.6842   47.0617   51.9660 C   0  0  0  0  0  0  0  0  0  0  0  0
   69.2883   48.3833   52.1585 C   0  0  0  0  0  0  0  0  0  0  0  0
   70.4210   48.4192   51.3198 O   0  0  0  0  0  0  0  0  0  0  0  0
   68.5381   45.6386   55.4034 C   0  0  0  0  0  0  0  0  0  0  0  0
   68.8319   45.9136   56.5933 O   0  0  0  0  0  0  0  0  0  0  0  0
   67.9571   44.4070   55.1624 O   0  0  0  0  0  0  0  0  0  0  0  0
   68.2691   43.3321   56.0244 C   0  0  0  0  0  0  0  0  0  0  0  0
   67.1871   42.2795   56.0569 C   0  0  0  0  0  0  0  0  0  0  0  0
   68.9035   49.9316   53.8856 O   0  0  0  0  0  0  0  0  0  0  0  0
   68.7120   52.1735   54.4352 C   0  0  0  0  0  0  0  0  0  0  0  0
   69.4560   51.0995   54.3176 C   0  0  0  0  0  0  0  0  0  0  0  0
   70.8653   51.1574   54.6491 C   0  0  0  0  0  0  0  0  0  0  0  0
   71.7075   51.7941   53.9644 O   0  0  0  0  0  0  0  0  0  0  0  0
   71.3862   50.4952   55.7750 O   0  0  0  0  0  0  0  0  0  0  0  0
 14 15  2  0  0  0
 15 13  1  0  0  0
 15 16  1  0  0  0
  1 13  1  0  0  0
  1  2  1  0  0  0
  1  6  1  0  0  0
  2  3  2  0  0  0
  3  8  1  0  0  0
  3  4  1  0  0  0
  8  9  2  0  0  0
  8 10  1  0  0  0
 10 11  1  0  0  0
 11 12  1  0  0  0
  4  5  2  0  0  0
  5  6  1  0  0  0
  6  7  1  0  0  0
 16 17  2  0  0  0
 16 18  1  0  0  0
M  END
> <minimizedAffinity>
-6.69131

$$$$
../data/cho_sim50/90145918.pdb


 18 18  0  0  0  0  0  0  0  0999 V2000
   70.3357   49.5255   53.6746 C   0  0  0  0  0  0  0  0  0  0  0  0
   69.7697   48.8344   54.8205 C   0  0  0  0  0  0  0  0  0  0  0  0
   69.1432   47.6911   54.7513 C   0  0  0  0  0  0  0  0  0  0  0  0
   69.0059   47.0729   53.4481 C   0  0  0  0  0  0  0  0  0  0  0  0
   69.4798   47.6161   52.3725 C   0  0  0  0  0  0  0  0  0  0  0  0
   70.1895   48.8834   52.3599 C   0  0  0  0  0  0  0  0  0  0  0  0
   69.6204   49.7672   51.3998 O   0  0  0  0  0  0  0  0  0  0  0  0
   68.5875   47.0399   55.9654 C   0  0  0  0  0  0  0  0  0  0  0  0
   68.2652   45.8267   55.9457 O   0  0  0  0  0  0  0  0  0  0  0  0
   68.4106   47.7423   57.1388 O   0  0  0  0  0  0  0  0  0  0  0  0
   67.2711   48.5336   57.4188 C   0  0  0  0  0  0  0  0  0  0  0  0
   67.6544   49.9683   57.7671 C   0  0  0  0  0  0  0  0  0  0  0  0
   71.7137   49.8500   53.9597 O   0  0  0  0  0  0  0  0  0  0  0  0
   71.4098   52.0032   54.7830 C   0  0  0  0  0  0  0  0  0  0  0  0
   72.0034   50.8399   54.8880 C   0  0  0  0  0  0  0  0  0  0  0  0
   72.9465   50.6284   55.9765 C   0  0  0  0  0  0  0  0  0  0  0  0
   72.9350   49.5422   56.6413 O   0  0  0  0  0  0  0  0  0  0  0  0
   73.8708   51.5727   56.3253 O   0  0  0  0  0  0  0  0  0  0  0  0
 14 15  2  0  0  0
 15 13  1  0  0  0
 15 16  1  0  0  0
  1 13  1  0  0  0
  1  2  1  0  0  0
  1  6  1  0  0  0
  2  3  2  0  0  0
  3  8  1  0  0  0
  3  4  1  0  0  0
  8  9  2  0  0  0
  8 10  1  0  0  0
 10 11  1  0  0  0
 11 12  1  0  0  0
  4  5  2  0  0  0
  5  6  1  0  0  0
  6  7  1  0  0  0
 16 17  2  0  0  0
 16 18  1  0  0  0
M  END
> <minimizedAffinity>
-6.65120

$$$$
../data/cho_sim50/90145918.pdb


 18 18  0  0  0  0  0  0  0  0999 V2000
   69.3150   48.3460   53.4443 C   0  0  0  0  0  0  0  0  0  0  0  0
   69.1411   47.3900   54.5164 C   0  0  0  0  0  0  0  0  0  0  0  0
   68.6004   46.2075   54.3519 C   0  0  0  0  0  0  0  0  0  0  0  0
   68.1871   45.7665   53.0321 C   0  0  0  0  0  0  0  0  0  0  0  0
   68.3729   46.5739   52.0175 C   0  0  0  0  0  0  0  0  0  0  0  0
   68.9779   47.9022   52.1046 C   0  0  0  0  0  0  0  0  0  0  0  0
   70.1139   47.9035   51.2388 O   0  0  0  0  0  0  0  0  0  0  0  0
   68.4475   45.2811   55.4934 C   0  0  0  0  0  0  0  0  0  0  0  0
   68.9074   45.5975   56.6140 O   0  0  0  0  0  0  0  0  0  0  0  0
   67.8017   44.0911   55.2931 O   0  0  0  0  0  0  0  0  0  0  0  0
   68.0341   42.9714   56.0972 C   0  0  0  0  0  0  0  0  0  0  0  0
   66.8428   42.0715   56.0705 C   0  0  0  0  0  0  0  0  0  0  0  0
   68.9041   49.6544   53.8169 O   0  0  0  0  0  0  0  0  0  0  0  0
   69.0728   51.8291   54.6477 C   0  0  0  0  0  0  0  0  0  0  0  0
   69.5574   50.6502   54.4060 C   0  0  0  0  0  0  0  0  0  0  0  0
   70.9628   50.3968   54.8251 C   0  0  0  0  0  0  0  0  0  0  0  0
   71.2836   50.3041   56.0401 O   0  0  0  0  0  0  0  0  0  0  0  0
   71.9922   50.2488   53.9049 O   0  0  0  0  0  0  0  0  0  0  0  0
 14 15  2  0  0  0
 15 13  1  0  0  0
 15 16  1  0  0  0
  1 13  1  0  0  0
  1  2  1  0  0  0
  1  6  1  0  0  0
  2  3  2  0  0  0
  3  8  1  0  0  0
  3  4  1  0  0  0
  8  9  2  0  0  0
  8 10  1  0  0  0
 10 11  1  0  0  0
 11 12  1  0  0  0
  4  5  2  0  0  0
  5  6  1  0  0  0
  6  7  1  0  0  0
 16 17  2  0  0  0
 16 18  1  0  0  0
M  END
> <minimizedAffinity>
-6.72213

$$$$
../data/cho_sim50/90145918.pdb


 18 18  0  0  0  0  0  0  0  0999 V2000
   70.3670   49.2471   53.4253 C   0  0  0  0  0  0  0  0  0  0  0  0
   69.6936   48.5913   54.5671 C   0  0  0  0  0  0  0  0  0  0  0  0
   69.0018   47.4814   54.4736 C   0  0  0  0  0  0  0  0  0  0  0  0
   68.8785   46.8481   53.1809 C   0  0  0  0  0  0  0  0  0  0  0  0
   69.4313   47.3398   52.0986 C   0  0  0  0  0  0  0  0  0  0  0  0
   70.2133   48.5683   52.1180 C   0  0  0  0  0  0  0  0  0  0  0  0
   69.6372   49.4412   51.1651 O   0  0  0  0  0  0  0  0  0  0  0  0
   68.3668   46.9096   55.6805 C   0  0  0  0  0  0  0  0  0  0  0  0
   68.5617   45.7246   56.0249 O   0  0  0  0  0  0  0  0  0  0  0  0
   67.5252   47.6735   56.4776 O   0  0  0  0  0  0  0  0  0  0  0  0
   68.0192   48.4962   57.5137 C   0  0  0  0  0  0  0  0  0  0  0  0
   67.1553   49.7018   57.7694 C   0  0  0  0  0  0  0  0  0  0  0  0
   69.9241   50.5844   53.3559 O   0  0  0  0  0  0  0  0  0  0  0  0
   69.2657   52.3170   54.7963 C   0  0  0  0  0  0  0  0  0  0  0  0
   70.2307   51.5403   54.2960 C   0  0  0  0  0  0  0  0  0  0  0  0
   71.5978   51.7130   54.7523 C   0  0  0  0  0  0  0  0  0  0  0  0
   72.4735   52.1607   53.9776 O   0  0  0  0  0  0  0  0  0  0  0  0
   71.9627   51.3880   56.0499 O   0  0  0  0  0  0  0  0  0  0  0  0
 14 15  2  0  0  0
 15 13  1  0  0  0
 15 16  1  0  0  0
  1 13  1  0  0  0
  1  2  1  0  0  0
  1  6  1  0  0  0
  2  3  2  0  0  0
  3  8  1  0  0  0
  3  4  1  0  0  0
  8  9  2  0  0  0
  8 10  1  0  0  0
 10 11  1  0  0  0
 11 12  1  0  0  0
  4  5  2  0  0  0
  5  6  1  0  0  0
  6  7  1  0  0  0
 16 17  2  0  0  0
 16 18  1  0  0  0
M  END
> <minimizedAffinity>
-6.73928

$$$$
../data/cho_sim50/90473446.pdb


 16 16  0  0  0  0  0  0  0  0999 V2000
   69.2345   48.9083   55.6893 C   0  0  0  0  0  0  0  0  0  0  0  0
   69.6724   48.8939   54.2769 C   0  0  0  0  0  0  0  0  0  0  0  0
   69.3768   47.9248   53.4509 C   0  0  0  0  0  0  0  0  0  0  0  0
   68.5956   46.8128   53.9052 C   0  0  0  0  0  0  0  0  0  0  0  0
   68.1580   46.7263   55.1349 C   0  0  0  0  0  0  0  0  0  0  0  0
   68.4319   47.7569   56.1426 C   0  0  0  0  0  0  0  0  0  0  0  0
   69.0946   47.1517   57.2331 O   0  0  0  0  0  0  0  0  0  0  0  0
   69.8339   47.9585   52.0679 C   0  0  0  0  0  0  0  0  0  0  0  0
   69.8790   46.8981   51.4035 O   0  0  0  0  0  0  0  0  0  0  0  0
   70.2197   49.1355   51.4728 O   0  0  0  0  0  0  0  0  0  0  0  0
   68.4619   50.0995   55.8322 O   0  0  0  0  0  0  0  0  0  0  0  0
   67.1511   51.0373   57.5026 C   0  0  0  0  0  0  0  0  0  0  0  0
   68.3456   50.6978   57.0642 C   0  0  0  0  0  0  0  0  0  0  0  0
   69.5402   50.9482   57.8671 C   0  0  0  0  0  0  0  0  0  0  0  0
   69.6915   50.3719   58.9527 O   0  0  0  0  0  0  0  0  0  0  0  0
   70.5155   51.8324   57.4236 O   0  0  0  0  0  0  0  0  0  0  0  0
 12 13  2  0  0  0
 13 11  1  0  0  0
 13 14  1  0  0  0
  1 11  1  0  0  0
  1  2  1  0  0  0
  1  6  1  0  0  0
  2  3  2  0  0  0
  3  8  1  0  0  0
  3  4  1  0  0  0
  8  9  2  0  0  0
  8 10  1  0  0  0
  4  5  2  0  0  0
  5  6  1  0  0  0
  6  7  1  0  0  0
 14 15  2  0  0  0
 14 16  1  0  0  0
M  END
> <minimizedAffinity>
-6.70931

$$$$
../data/cho_sim50/90473446.pdb


 16 16  0  0  0  0  0  0  0  0999 V2000
   70.1269   49.3562   53.5080 C   0  0  0  0  0  0  0  0  0  0  0  0
   69.4304   48.4929   54.4870 C   0  0  0  0  0  0  0  0  0  0  0  0
   68.9372   47.3246   54.2106 C   0  0  0  0  0  0  0  0  0  0  0  0
   69.0490   46.7905   52.8803 C   0  0  0  0  0  0  0  0  0  0  0  0
   69.6523   47.4791   51.9291 C   0  0  0  0  0  0  0  0  0  0  0  0
   70.2450   48.8114   52.1347 C   0  0  0  0  0  0  0  0  0  0  0  0
   69.5925   49.6973   51.2541 O   0  0  0  0  0  0  0  0  0  0  0  0
   68.2568   46.5434   55.2735 C   0  0  0  0  0  0  0  0  0  0  0  0
   67.8481   47.1084   56.3117 O   0  0  0  0  0  0  0  0  0  0  0  0
   68.0613   45.1919   55.1470 O   0  0  0  0  0  0  0  0  0  0  0  0
   71.4265   49.6250   54.0132 O   0  0  0  0  0  0  0  0  0  0  0  0
   70.8351   51.7576   54.7177 C   0  0  0  0  0  0  0  0  0  0  0  0
   71.7747   50.8698   54.4915 C   0  0  0  0  0  0  0  0  0  0  0  0
   73.1631   51.1762   54.7347 C   0  0  0  0  0  0  0  0  0  0  0  0
   74.0415   50.6533   54.0140 O   0  0  0  0  0  0  0  0  0  0  0  0
   73.5522   52.0329   55.7425 O   0  0  0  0  0  0  0  0  0  0  0  0
 12 13  2  0  0  0
 13 11  1  0  0  0
 13 14  1  0  0  0
  1 11  1  0  0  0
  1  2  1  0  0  0
  1  6  1  0  0  0
  2  3  2  0  0  0
  3  8  1  0  0  0
  3  4  1  0  0  0
  8  9  2  0  0  0
  8 10  1  0  0  0
  4  5  2  0  0  0
  5  6  1  0  0  0
  6  7  1  0  0  0
 14 15  2  0  0  0
 14 16  1  0  0  0
M  END
> <minimizedAffinity>
-6.86722

$$$$
../data/cho_sim50/101035447.pdb


 16 16  0  0  0  0  0  0  0  0999 V2000
   69.1626   48.9415   55.6659 C   0  0  0  0  0  0  0  0  0  0  0  0
   69.6137   48.8894   54.2815 C   0  0  0  0  0  0  0  0  0  0  0  0
   69.3514   47.9154   53.4402 C   0  0  0  0  0  0  0  0  0  0  0  0
   68.5582   46.7960   53.9178 C   0  0  0  0  0  0  0  0  0  0  0  0
   68.1133   46.7492   55.1507 C   0  0  0  0  0  0  0  0  0  0  0  0
   68.3757   47.7984   56.1273 C   0  0  0  0  0  0  0  0  0  0  0  0
   69.1310   47.1469   57.1659 O   0  0  0  0  0  0  0  0  0  0  0  0
   69.8351   47.9180   52.0524 C   0  0  0  0  0  0  0  0  0  0  0  0
   69.8839   46.8666   51.4015 O   0  0  0  0  0  0  0  0  0  0  0  0
   70.2281   49.1240   51.5094 O   0  0  0  0  0  0  0  0  0  0  0  0
   68.4097   50.1798   55.7654 O   0  0  0  0  0  0  0  0  0  0  0  0
   67.1557   50.9998   57.5498 C   0  0  0  0  0  0  0  0  0  0  0  0
   68.3435   50.7043   57.0522 C   0  0  0  0  0  0  0  0  0  0  0  0
   69.5428   50.9328   57.8545 C   0  0  0  0  0  0  0  0  0  0  0  0
   69.6755   50.3413   58.9519 O   0  0  0  0  0  0  0  0  0  0  0  0
   70.5529   51.7927   57.4381 O   0  0  0  0  0  0  0  0  0  0  0  0
 12 13  2  0  0  0
 13 11  1  0  0  0
 13 14  1  0  0  0
  1 11  1  0  0  0
  1  2  1  0  0  0
  1  6  1  0  0  0
  2  3  2  0  0  0
  3  8  1  0  0  0
  3  4  1  0  0  0
  8  9  2  0  0  0
  8 10  1  0  0  0
  4  5  2  0  0  0
  5  6  1  0  0  0
  6  7  1  0  0  0
 14 15  2  0  0  0
 14 16  1  0  0  0
M  END
> <minimizedAffinity>
-6.63530

$$$$
../data/cho_sim50/101035447.pdb


 16 16  0  0  0  0  0  0  0  0999 V2000
   70.1234   49.3752   53.5223 C   0  0  0  0  0  0  0  0  0  0  0  0
   69.4355   48.4836   54.4834 C   0  0  0  0  0  0  0  0  0  0  0  0
   68.9578   47.3102   54.1988 C   0  0  0  0  0  0  0  0  0  0  0  0
   69.0843   46.7935   52.8531 C   0  0  0  0  0  0  0  0  0  0  0  0
   69.6695   47.4881   51.9288 C   0  0  0  0  0  0  0  0  0  0  0  0
   70.2385   48.8171   52.1496 C   0  0  0  0  0  0  0  0  0  0  0  0
   69.5842   49.6791   51.2251 O   0  0  0  0  0  0  0  0  0  0  0  0
   68.3011   46.5364   55.2502 C   0  0  0  0  0  0  0  0  0  0  0  0
   67.9616   47.0712   56.3331 O   0  0  0  0  0  0  0  0  0  0  0  0
   68.0236   45.1818   55.0980 O   0  0  0  0  0  0  0  0  0  0  0  0
   71.3825   49.6635   54.1073 O   0  0  0  0  0  0  0  0  0  0  0  0
   70.8827   51.7918   54.8525 C   0  0  0  0  0  0  0  0  0  0  0  0
   71.7789   50.8803   54.5550 C   0  0  0  0  0  0  0  0  0  0  0  0
   73.1799   51.1986   54.7141 C   0  0  0  0  0  0  0  0  0  0  0  0
   74.0893   50.6495   54.0222 O   0  0  0  0  0  0  0  0  0  0  0  0
   73.6044   52.1355   55.6449 O   0  0  0  0  0  0  0  0  0  0  0  0
 12 13  2  0  0  0
 13 11  1  0  0  0
 13 14  1  0  0  0
  1 11  1  0  0  0
  1  2  1  0  0  0
  1  6  1  0  0  0
  2  3  2  0  0  0
  3  8  1  0  0  0
  3  4  1  0  0  0
  8  9  2  0  0  0
  8 10  1  0  0  0
  4  5  2  0  0  0
  5  6  1  0  0  0
  6  7  1  0  0  0
 14 15  2  0  0  0
 14 16  1  0  0  0
M  END
> <minimizedAffinity>
-6.86542

$$$$
../data/cho_sim50/101035447.pdb


 16 16  0  0  0  0  0  0  0  0999 V2000
   70.0907   49.2185   53.5286 C   0  0  0  0  0  0  0  0  0  0  0  0
   69.4725   48.3597   54.5184 C   0  0  0  0  0  0  0  0  0  0  0  0
   68.9727   47.1811   54.2281 C   0  0  0  0  0  0  0  0  0  0  0  0
   69.0500   46.6912   52.8498 C   0  0  0  0  0  0  0  0  0  0  0  0
   69.6078   47.4096   51.9155 C   0  0  0  0  0  0  0  0  0  0  0  0
   70.1854   48.7180   52.1592 C   0  0  0  0  0  0  0  0  0  0  0  0
   69.6268   49.6928   51.2840 O   0  0  0  0  0  0  0  0  0  0  0  0
   68.3615   46.3506   55.2406 C   0  0  0  0  0  0  0  0  0  0  0  0
   68.1404   46.7914   56.3972 O   0  0  0  0  0  0  0  0  0  0  0  0
   68.0101   45.0595   54.9536 O   0  0  0  0  0  0  0  0  0  0  0  0
   71.3743   49.7092   54.0047 O   0  0  0  0  0  0  0  0  0  0  0  0
   70.2470   51.6876   54.4388 C   0  0  0  0  0  0  0  0  0  0  0  0
   71.3837   51.0325   54.3889 C   0  0  0  0  0  0  0  0  0  0  0  0
   72.6205   51.6981   54.7352 C   0  0  0  0  0  0  0  0  0  0  0  0
   72.7064   52.5689   55.6386 O   0  0  0  0  0  0  0  0  0  0  0  0
   73.8008   51.3911   54.0624 O   0  0  0  0  0  0  0  0  0  0  0  0
 12 13  2  0  0  0
 13 11  1  0  0  0
 13 14  1  0  0  0
  1 11  1  0  0  0
  1  2  1  0  0  0
  1  6  1  0  0  0
  2  3  2  0  0  0
  3  8  1  0  0  0
  3  4  1  0  0  0
  8  9  2  0  0  0
  8 10  1  0  0  0
  4  5  2  0  0  0
  5  6  1  0  0  0
  6  7  1  0  0  0
 14 15  2  0  0  0
 14 16  1  0  0  0
M  END
> <minimizedAffinity>
-6.78038

$$$$
../data/cho_sim50/101072171.pdb


 16 16  0  0  0  0  0  0  0  0999 V2000
   70.1716   49.2761   53.5637 C   0  0  0  0  0  0  0  0  0  0  0  0
   69.5264   48.4020   54.5381 C   0  0  0  0  0  0  0  0  0  0  0  0
   68.9932   47.2411   54.2457 C   0  0  0  0  0  0  0  0  0  0  0  0
   69.0240   46.7581   52.8859 C   0  0  0  0  0  0  0  0  0  0  0  0
   69.5861   47.4805   51.9411 C   0  0  0  0  0  0  0  0  0  0  0  0
   70.2091   48.7911   52.1670 C   0  0  0  0  0  0  0  0  0  0  0  0
   69.6364   49.6885   51.2607 O   0  0  0  0  0  0  0  0  0  0  0  0
   68.3512   46.3957   55.2758 C   0  0  0  0  0  0  0  0  0  0  0  0
   68.1176   46.8934   56.4104 O   0  0  0  0  0  0  0  0  0  0  0  0
   68.0112   45.0912   55.0134 O   0  0  0  0  0  0  0  0  0  0  0  0
   71.4694   49.7062   53.9983 O   0  0  0  0  0  0  0  0  0  0  0  0
   70.4157   51.7618   54.5521 C   0  0  0  0  0  0  0  0  0  0  0  0
   71.5166   51.0440   54.4467 C   0  0  0  0  0  0  0  0  0  0  0  0
   72.7811   51.6651   54.8034 C   0  0  0  0  0  0  0  0  0  0  0  0
   73.7351   51.5887   53.9976 O   0  0  0  0  0  0  0  0  0  0  0  0
   72.9777   52.3369   55.9909 O   0  0  0  0  0  0  0  0  0  0  0  0
 12 13  2  0  0  0
 13 11  1  0  0  0
 13 14  1  0  0  0
  1 11  1  0  0  0
  1  2  1  0  0  0
  1  6  1  0  0  0
  2  3  2  0  0  0
  3  8  1  0  0  0
  3  4  1  0  0  0
  8  9  2  0  0  0
  8 10  1  0  0  0
  4  5  2  0  0  0
  5  6  1  0  0  0
  6  7  1  0  0  0
 14 15  2  0  0  0
 14 16  1  0  0  0
M  END
> <minimizedAffinity>
-6.76791

$$$$
../data/cho_sim50/101072171.pdb


 16 16  0  0  0  0  0  0  0  0999 V2000
   70.1374   49.2126   53.5245 C   0  0  0  0  0  0  0  0  0  0  0  0
   69.5149   48.3483   54.5097 C   0  0  0  0  0  0  0  0  0  0  0  0
   68.9278   47.2018   54.2854 C   0  0  0  0  0  0  0  0  0  0  0  0
   68.9085   46.7555   52.8859 C   0  0  0  0  0  0  0  0  0  0  0  0
   69.4423   47.4551   51.9294 C   0  0  0  0  0  0  0  0  0  0  0  0
   70.1007   48.7254   52.1344 C   0  0  0  0  0  0  0  0  0  0  0  0
   69.6386   49.7162   51.2364 O   0  0  0  0  0  0  0  0  0  0  0  0
   68.3228   46.3905   55.3476 C   0  0  0  0  0  0  0  0  0  0  0  0
   68.0715   45.1921   55.1797 O   0  0  0  0  0  0  0  0  0  0  0  0
   68.0450   47.0291   56.5478 O   0  0  0  0  0  0  0  0  0  0  0  0
   71.4729   49.5773   53.9287 O   0  0  0  0  0  0  0  0  0  0  0  0
   70.7261   51.6552   54.6326 C   0  0  0  0  0  0  0  0  0  0  0  0
   71.7346   50.8435   54.4261 C   0  0  0  0  0  0  0  0  0  0  0  0
   73.0843   51.2984   54.7238 C   0  0  0  0  0  0  0  0  0  0  0  0
   74.0731   50.7977   54.0930 O   0  0  0  0  0  0  0  0  0  0  0  0
   73.3500   52.2579   55.6665 O   0  0  0  0  0  0  0  0  0  0  0  0
 12 13  2  0  0  0
 13 11  1  0  0  0
 13 14  1  0  0  0
  1 11  1  0  0  0
  1  2  1  0  0  0
  1  6  1  0  0  0
  2  3  2  0  0  0
  3  8  1  0  0  0
  3  4  1  0  0  0
  8  9  2  0  0  0
  8 10  1  0  0  0
  4  5  2  0  0  0
  5  6  1  0  0  0
  6  7  1  0  0  0
 14 15  2  0  0  0
 14 16  1  0  0  0
M  END
> <minimizedAffinity>
-6.84492

$$$$
../data/cho_sim50/101072171.pdb


 16 16  0  0  0  0  0  0  0  0999 V2000
   69.1632   48.9485   55.6490 C   0  0  0  0  0  0  0  0  0  0  0  0
   69.6117   48.9034   54.2451 C   0  0  0  0  0  0  0  0  0  0  0  0
   69.3435   47.9042   53.4335 C   0  0  0  0  0  0  0  0  0  0  0  0
   68.5647   46.7642   53.9071 C   0  0  0  0  0  0  0  0  0  0  0  0
   68.1321   46.7332   55.1365 C   0  0  0  0  0  0  0  0  0  0  0  0
   68.3734   47.7970   56.1338 C   0  0  0  0  0  0  0  0  0  0  0  0
   69.0379   47.1997   57.2305 O   0  0  0  0  0  0  0  0  0  0  0  0
   69.8363   47.9455   52.0389 C   0  0  0  0  0  0  0  0  0  0  0  0
   69.9024   46.8678   51.3945 O   0  0  0  0  0  0  0  0  0  0  0  0
   70.2073   49.1615   51.4885 O   0  0  0  0  0  0  0  0  0  0  0  0
   68.4101   50.1539   55.7878 O   0  0  0  0  0  0  0  0  0  0  0  0
   67.1550   50.9469   57.5801 C   0  0  0  0  0  0  0  0  0  0  0  0
   68.3276   50.6793   57.0833 C   0  0  0  0  0  0  0  0  0  0  0  0
   69.5206   50.9267   57.8692 C   0  0  0  0  0  0  0  0  0  0  0  0
   69.7115   50.3801   58.9727 O   0  0  0  0  0  0  0  0  0  0  0  0
   70.4737   51.7953   57.3793 O   0  0  0  0  0  0  0  0  0  0  0  0
 12 13  2  0  0  0
 13 11  1  0  0  0
 13 14  1  0  0  0
  1 11  1  0  0  0
  1  2  1  0  0  0
  1  6  1  0  0  0
  2  3  2  0  0  0
  3  8  1  0  0  0
  3  4  1  0  0  0
  8  9  2  0  0  0
  8 10  1  0  0  0
  4  5  2  0  0  0
  5  6  1  0  0  0
  6  7  1  0  0  0
 14 15  2  0  0  0
 14 16  1  0  0  0
M  END
> <minimizedAffinity>
-6.66928

$$$$
../data/cho_sim50/101931542.pdb


 17 17  0  0  0  0  0  0  0  0999 V2000
   70.1392   49.4035   53.6229 C   0  0  0  0  0  0  0  0  0  0  0  0
   69.4907   48.6704   54.7035 C   0  0  0  0  0  0  0  0  0  0  0  0
   69.4735   49.1843   55.9763 F   0  0  0  0  0  0  0  0  0  0  0  0
   68.9088   47.5222   54.5274 C   0  0  0  0  0  0  0  0  0  0  0  0
   68.8857   46.9124   53.2197 C   0  0  0  0  0  0  0  0  0  0  0  0
   69.4545   47.5155   52.1972 C   0  0  0  0  0  0  0  0  0  0  0  0
   70.1311   48.8010   52.2875 C   0  0  0  0  0  0  0  0  0  0  0  0
   69.6209   49.7307   51.3545 O   0  0  0  0  0  0  0  0  0  0  0  0
   68.2750   46.8264   55.6317 C   0  0  0  0  0  0  0  0  0  0  0  0
   67.5397   47.4168   56.4664 O   0  0  0  0  0  0  0  0  0  0  0  0
   68.4637   45.4593   55.8057 O   0  0  0  0  0  0  0  0  0  0  0  0
   71.5051   49.6163   54.0580 O   0  0  0  0  0  0  0  0  0  0  0  0
   70.8856   51.8108   54.5511 C   0  0  0  0  0  0  0  0  0  0  0  0
   71.8349   50.9175   54.4316 C   0  0  0  0  0  0  0  0  0  0  0  0
   73.2162   51.2969   54.6919 C   0  0  0  0  0  0  0  0  0  0  0  0
   74.1347   50.7336   54.0800 O   0  0  0  0  0  0  0  0  0  0  0  0
   73.5141   52.2860   55.6255 O   0  0  0  0  0  0  0  0  0  0  0  0
 13 14  2  0  0  0
 14 12  1  0  0  0
 14 15  1  0  0  0
  1 12  1  0  0  0
  1  2  1  0  0  0
  1  7  1  0  0  0
  2  3  1  0  0  0
  2  4  2  0  0  0
  4  9  1  0  0  0
  4  5  1  0  0  0
  9 10  2  0  0  0
  9 11  1  0  0  0
  5  6  2  0  0  0
  6  7  1  0  0  0
  7  8  1  0  0  0
 15 16  2  0  0  0
 15 17  1  0  0  0
M  END
> <minimizedAffinity>
-6.93722

$$$$
../data/cho_sim50/101931542.pdb


 17 17  0  0  0  0  0  0  0  0999 V2000
   70.2204   49.3421   53.6642 C   0  0  0  0  0  0  0  0  0  0  0  0
   69.5614   48.6139   54.7612 C   0  0  0  0  0  0  0  0  0  0  0  0
   69.6014   49.1424   56.0503 F   0  0  0  0  0  0  0  0  0  0  0  0
   68.9402   47.4822   54.5520 C   0  0  0  0  0  0  0  0  0  0  0  0
   68.8703   46.8928   53.2410 C   0  0  0  0  0  0  0  0  0  0  0  0
   69.4262   47.4654   52.1986 C   0  0  0  0  0  0  0  0  0  0  0  0
   70.1484   48.7346   52.3123 C   0  0  0  0  0  0  0  0  0  0  0  0
   69.6218   49.6554   51.3622 O   0  0  0  0  0  0  0  0  0  0  0  0
   68.2919   46.7894   55.6987 C   0  0  0  0  0  0  0  0  0  0  0  0
   68.5305   45.5902   55.8924 O   0  0  0  0  0  0  0  0  0  0  0  0
   67.4325   47.4832   56.5396 O   0  0  0  0  0  0  0  0  0  0  0  0
   71.5619   49.6877   54.0089 O   0  0  0  0  0  0  0  0  0  0  0  0
   70.8904   51.8343   54.6249 C   0  0  0  0  0  0  0  0  0  0  0  0
   71.8442   50.9584   54.4543 C   0  0  0  0  0  0  0  0  0  0  0  0
   73.2297   51.3147   54.7311 C   0  0  0  0  0  0  0  0  0  0  0  0
   73.5293   52.2176   55.5488 O   0  0  0  0  0  0  0  0  0  0  0  0
   74.2637   50.6464   54.0776 O   0  0  0  0  0  0  0  0  0  0  0  0
 13 14  2  0  0  0
 14 12  1  0  0  0
 14 15  1  0  0  0
  1 12  1  0  0  0
  1  2  1  0  0  0
  1  7  1  0  0  0
  2  3  1  0  0  0
  2  4  2  0  0  0
  4  9  1  0  0  0
  4  5  1  0  0  0
  9 10  2  0  0  0
  9 11  1  0  0  0
  5  6  2  0  0  0
  6  7  1  0  0  0
  7  8  1  0  0  0
 15 16  2  0  0  0
 15 17  1  0  0  0
M  END
> <minimizedAffinity>
-6.94879

$$$$
../data/cho_sim50/101931542.pdb


 17 17  0  0  0  0  0  0  0  0999 V2000
   70.3204   49.5741   53.8236 C   0  0  0  0  0  0  0  0  0  0  0  0
   69.6755   48.8558   54.9118 C   0  0  0  0  0  0  0  0  0  0  0  0
   69.7252   49.3441   56.2149 F   0  0  0  0  0  0  0  0  0  0  0  0
   69.0224   47.7330   54.7422 C   0  0  0  0  0  0  0  0  0  0  0  0
   68.8710   47.0775   53.4432 C   0  0  0  0  0  0  0  0  0  0  0  0
   69.4333   47.6814   52.4292 C   0  0  0  0  0  0  0  0  0  0  0  0
   70.1837   48.9355   52.5071 C   0  0  0  0  0  0  0  0  0  0  0  0
   69.5664   49.8056   51.5681 O   0  0  0  0  0  0  0  0  0  0  0  0
   68.4023   47.0832   55.9170 C   0  0  0  0  0  0  0  0  0  0  0  0
   68.7388   45.9128   56.1902 O   0  0  0  0  0  0  0  0  0  0  0  0
   67.4843   47.7263   56.6956 O   0  0  0  0  0  0  0  0  0  0  0  0
   71.7171   49.7897   54.1096 O   0  0  0  0  0  0  0  0  0  0  0  0
   71.2663   51.9583   54.7916 C   0  0  0  0  0  0  0  0  0  0  0  0
   72.1604   51.0050   54.6257 C   0  0  0  0  0  0  0  0  0  0  0  0
   73.5321   51.2614   54.9806 C   0  0  0  0  0  0  0  0  0  0  0  0
   74.4402   50.5420   54.5166 O   0  0  0  0  0  0  0  0  0  0  0  0
   73.8566   52.2935   55.8281 O   0  0  0  0  0  0  0  0  0  0  0  0
 13 14  2  0  0  0
 14 12  1  0  0  0
 14 15  1  0  0  0
  1 12  1  0  0  0
  1  2  1  0  0  0
  1  7  1  0  0  0
  2  3  1  0  0  0
  2  4  2  0  0  0
  4  9  1  0  0  0
  4  5  1  0  0  0
  9 10  2  0  0  0
  9 11  1  0  0  0
  5  6  2  0  0  0
  6  7  1  0  0  0
  7  8  1  0  0  0
 15 16  2  0  0  0
 15 17  1  0  0  0
M  END
> <minimizedAffinity>
-6.84543

$$$$
../data/cho_sim50/102515144.pdb


 14 14  0  0  0  0  0  0  0  0999 V2000
   70.8379   49.9772   54.4518 C   0  0  0  0  0  0  0  0  0  0  0  0
   69.9808   49.2203   55.1964 C   0  0  0  0  0  0  0  0  0  0  0  0
   69.2044   48.2441   54.6180 C   0  0  0  0  0  0  0  0  0  0  0  0
   69.3072   48.0409   53.2569 C   0  0  0  0  0  0  0  0  0  0  0  0
   70.1921   48.8436   52.5797 C   0  0  0  0  0  0  0  0  0  0  0  0
   70.3425   48.7165   51.3279 O   0  0  0  0  0  0  0  0  0  0  0  0
   70.9184   49.7662   53.1627 O   0  0  0  0  0  0  0  0  0  0  0  0
   72.3615   51.7842   54.3265 O   0  0  0  0  0  0  0  0  0  0  0  0
   71.6752   51.0250   55.0580 C   0  0  0  0  0  0  0  0  0  0  0  0
   71.7457   51.2180   56.4164 O   0  0  0  0  0  0  0  0  0  0  0  0
   68.5347   47.0380   52.5385 C   0  0  0  0  0  0  0  0  0  0  0  0
   68.0447   45.9488   53.0665 C   0  0  0  0  0  0  0  0  0  0  0  0
   67.2527   44.9409   52.2862 C   0  0  0  0  0  0  0  0  0  0  0  0
   66.8522   45.4693   51.0610 O   0  0  0  0  0  0  0  0  0  0  0  0
  8  9  2  0  0  0
  9 10  1  0  0  0
  9  1  1  0  0  0
  1  2  2  0  0  0
  1  7  1  0  0  0
  2  3  1  0  0  0
  3  4  2  0  0  0
  4 11  1  0  0  0
  4  5  1  0  0  0
 11 12  2  0  0  0
 12 13  1  0  0  0
 13 14  1  0  0  0
  5  6  2  0  0  0
  5  7  1  0  0  0
M  END
> <minimizedAffinity>
-6.12407

$$$$
../data/cho_sim50/102515145.pdb


 14 14  0  0  0  0  0  0  0  0999 V2000
   70.7048   50.0807   54.3901 C   0  0  0  0  0  0  0  0  0  0  0  0
   69.9822   49.2333   55.1918 C   0  0  0  0  0  0  0  0  0  0  0  0
   69.3382   48.1801   54.6020 C   0  0  0  0  0  0  0  0  0  0  0  0
   69.4318   48.0046   53.2445 C   0  0  0  0  0  0  0  0  0  0  0  0
   70.1724   48.8914   52.5035 C   0  0  0  0  0  0  0  0  0  0  0  0
   70.2975   48.7821   51.2443 O   0  0  0  0  0  0  0  0  0  0  0  0
   70.7700   49.8811   53.1041 O   0  0  0  0  0  0  0  0  0  0  0  0
   72.2060   51.8680   54.3295 O   0  0  0  0  0  0  0  0  0  0  0  0
   71.3898   51.1966   55.0033 C   0  0  0  0  0  0  0  0  0  0  0  0
   71.1631   51.5444   56.3246 O   0  0  0  0  0  0  0  0  0  0  0  0
   68.7757   46.9085   52.5464 C   0  0  0  0  0  0  0  0  0  0  0  0
   67.8722   46.1348   53.1107 C   0  0  0  0  0  0  0  0  0  0  0  0
   67.2536   45.0246   52.2896 C   0  0  0  0  0  0  0  0  0  0  0  0
   66.8400   45.4849   51.0647 O   0  0  0  0  0  0  0  0  0  0  0  0
  8  9  2  0  0  0
  9 10  1  0  0  0
  9  1  1  0  0  0
  1  2  2  0  0  0
  1  7  1  0  0  0
  2  3  1  0  0  0
  3  4  2  0  0  0
  4 11  1  0  0  0
  4  5  1  0  0  0
 11 12  2  0  0  0
 12 13  1  0  0  0
 13 14  1  0  0  0
  5  6  2  0  0  0
  5  7  1  0  0  0
M  END
> <minimizedAffinity>
-6.18414

$$$$
../data/cho_sim50/118797439.pdb


 16 16  0  0  0  0  0  0  0  0999 V2000
   70.5748   49.7868   55.4507 C   0  0  0  0  0  0  0  0  0  0  0  0
   70.5052   49.5501   53.9992 C   0  0  0  0  0  0  0  0  0  0  0  0
   69.8518   48.5806   53.4275 C   0  0  0  0  0  0  0  0  0  0  0  0
   69.1191   47.6343   54.2458 C   0  0  0  0  0  0  0  0  0  0  0  0
   69.1193   47.7615   55.5649 C   0  0  0  0  0  0  0  0  0  0  0  0
   69.8280   48.8225   56.2879 C   0  0  0  0  0  0  0  0  0  0  0  0
   70.7141   48.2690   57.2380 O   0  0  0  0  0  0  0  0  0  0  0  0
   69.8538   48.4442   51.9858 C   0  0  0  0  0  0  0  0  0  0  0  0
   69.8400   49.4521   51.2576 O   0  0  0  0  0  0  0  0  0  0  0  0
   69.8707   47.2064   51.3572 O   0  0  0  0  0  0  0  0  0  0  0  0
   71.9682   49.8190   55.7923 O   0  0  0  0  0  0  0  0  0  0  0  0
   72.0218   52.1024   56.2749 C   0  0  0  0  0  0  0  0  0  0  0  0
   72.5755   51.0684   55.6794 C   0  0  0  0  0  0  0  0  0  0  0  0
   73.7954   51.1956   54.9099 C   0  0  0  0  0  0  0  0  0  0  0  0
   74.7133   51.9648   55.2714 O   0  0  0  0  0  0  0  0  0  0  0  0
   73.9929   50.4730   53.7447 O   0  0  0  0  0  0  0  0  0  0  0  0
 12 13  2  0  0  0
 13 11  1  0  0  0
 13 14  1  0  0  0
  1 11  1  0  0  0
  1  2  1  0  0  0
  1  6  1  0  0  0
  2  3  2  0  0  0
  3  8  1  0  0  0
  3  4  1  0  0  0
  8  9  2  0  0  0
  8 10  1  0  0  0
  4  5  2  0  0  0
  5  6  1  0  0  0
  6  7  1  0  0  0
 14 15  2  0  0  0
 14 16  1  0  0  0
M  END
> <minimizedAffinity>
-6.67757

$$$$
../data/cho_sim50/118797439.pdb


 16 16  0  0  0  0  0  0  0  0999 V2000
   69.2798   48.5242   55.2789 C   0  0  0  0  0  0  0  0  0  0  0  0
   69.2275   48.2367   53.8375 C   0  0  0  0  0  0  0  0  0  0  0  0
   68.8760   47.0994   53.2728 C   0  0  0  0  0  0  0  0  0  0  0  0
   68.4950   46.0090   54.1657 C   0  0  0  0  0  0  0  0  0  0  0  0
   68.5011   46.1551   55.4775 C   0  0  0  0  0  0  0  0  0  0  0  0
   68.8810   47.3924   56.1704 C   0  0  0  0  0  0  0  0  0  0  0  0
   67.7748   47.7463   56.9827 O   0  0  0  0  0  0  0  0  0  0  0  0
   68.8684   46.9446   51.8268 C   0  0  0  0  0  0  0  0  0  0  0  0
   69.9268   47.1954   51.2070 O   0  0  0  0  0  0  0  0  0  0  0  0
   67.7659   46.5390   51.1007 O   0  0  0  0  0  0  0  0  0  0  0  0
   70.6243   48.8655   55.5705 O   0  0  0  0  0  0  0  0  0  0  0  0
   70.8893   50.7804   56.8920 C   0  0  0  0  0  0  0  0  0  0  0  0
   71.0603   50.1645   55.7531 C   0  0  0  0  0  0  0  0  0  0  0  0
   71.7135   50.8126   54.6278 C   0  0  0  0  0  0  0  0  0  0  0  0
   71.0188   51.5546   53.8960 O   0  0  0  0  0  0  0  0  0  0  0  0
   73.0518   50.6635   54.3127 O   0  0  0  0  0  0  0  0  0  0  0  0
 12 13  2  0  0  0
 13 11  1  0  0  0
 13 14  1  0  0  0
  1 11  1  0  0  0
  1  2  1  0  0  0
  1  6  1  0  0  0
  2  3  2  0  0  0
  3  8  1  0  0  0
  3  4  1  0  0  0
  8  9  2  0  0  0
  8 10  1  0  0  0
  4  5  2  0  0  0
  5  6  1  0  0  0
  6  7  1  0  0  0
 14 15  2  0  0  0
 14 16  1  0  0  0
M  END
> <minimizedAffinity>
-6.75363

$$$$
../data/cho_sim50/138623598.pdb


 12 12  0  0  0  0  0  0  0  0999 V2000
   69.4383   48.6944   55.7761 C   0  0  0  0  0  0  0  0  0  0  0  0
   69.7217   48.7856   54.3338 C   0  0  0  0  0  0  0  0  0  0  0  0
   69.4100   47.8672   53.4496 C   0  0  0  0  0  0  0  0  0  0  0  0
   68.7343   46.6676   53.9176 C   0  0  0  0  0  0  0  0  0  0  0  0
   68.4288   46.4746   55.1896 C   0  0  0  0  0  0  0  0  0  0  0  0
   68.7505   47.4591   56.2192 C   0  0  0  0  0  0  0  0  0  0  0  0
   67.5521   47.7610   56.9103 O   0  0  0  0  0  0  0  0  0  0  0  0
   69.7383   48.0620   52.0444 C   0  0  0  0  0  0  0  0  0  0  0  0
   69.8526   47.0911   51.2610 O   0  0  0  0  0  0  0  0  0  0  0  0
   69.9386   49.3287   51.5130 O   0  0  0  0  0  0  0  0  0  0  0  0
   71.3592   49.9396   56.1237 C   0  0  0  0  0  0  0  0  0  0  0  0
   70.5796   48.8780   56.5408 O   0  0  0  0  0  0  0  0  0  0  0  0
 11 12  1  0  0  0
  1 12  1  0  0  0
  1  2  1  0  0  0
  1  6  1  0  0  0
  2  3  2  0  0  0
  3  8  1  0  0  0
  3  4  1  0  0  0
  8  9  2  0  0  0
  8 10  1  0  0  0
  4  5  2  0  0  0
  5  6  1  0  0  0
  6  7  1  0  0  0
M  END
> <minimizedAffinity>
-6.06430

$$$$
../data/cho_sim50/139992404.pdb


 15 15  0  0  0  0  0  0  0  0999 V2000
   69.4687   48.1516   53.4359 C   0  0  0  0  0  0  0  0  0  0  0  0
   69.9282   48.9162   54.4152 C   0  0  0  0  0  0  0  0  0  0  0  0
   69.5809   48.5334   55.7199 O   0  0  0  0  0  0  0  0  0  0  0  0
   68.8227   47.4622   56.0941 C   0  0  0  0  0  0  0  0  0  0  0  0
   68.3413   46.6504   54.9612 C   0  0  0  0  0  0  0  0  0  0  0  0
   68.6419   46.9735   53.7508 C   0  0  0  0  0  0  0  0  0  0  0  0
   70.0576   47.4071   51.3162 O   0  0  0  0  0  0  0  0  0  0  0  0
   69.7479   48.4259   52.0477 C   0  0  0  0  0  0  0  0  0  0  0  0
   69.7300   49.6028   51.4085 O   0  0  0  0  0  0  0  0  0  0  0  0
   70.7494   50.0998   54.2422 C   0  0  0  0  0  0  0  0  0  0  0  0
   70.1067   51.2171   54.2989 O   0  0  0  0  0  0  0  0  0  0  0  0
   72.0691   50.2289   54.0330 O   0  0  0  0  0  0  0  0  0  0  0  0
   69.5657   46.5195   57.0009 C   0  0  0  0  0  0  0  0  0  0  0  0
   70.3012   47.0107   57.8832 O   0  0  0  0  0  0  0  0  0  0  0  0
   69.4709   45.1499   56.9016 O   0  0  0  0  0  0  0  0  0  0  0  0
  7  8  2  0  0  0
  8  9  1  0  0  0
  8  1  1  0  0  0
  1  2  2  0  0  0
  1  6  1  0  0  0
  2 10  1  0  0  0
  2  3  1  0  0  0
 10 11  2  0  0  0
 10 12  1  0  0  0
  3  4  1  0  0  0
  4 13  1  0  0  0
  4  5  1  0  0  0
 13 14  2  0  0  0
 13 15  1  0  0  0
  5  6  2  0  0  0
M  END
> <minimizedAffinity>
-6.40707

$$$$
../data/cho_sim50/139992404.pdb


 15 15  0  0  0  0  0  0  0  0999 V2000
   69.6073   48.4290   53.5911 C   0  0  0  0  0  0  0  0  0  0  0  0
   70.1323   49.2410   54.4571 C   0  0  0  0  0  0  0  0  0  0  0  0
   69.8666   49.0722   55.8257 O   0  0  0  0  0  0  0  0  0  0  0  0
   69.0865   48.1162   56.4276 C   0  0  0  0  0  0  0  0  0  0  0  0
   68.5081   47.2153   55.4104 C   0  0  0  0  0  0  0  0  0  0  0  0
   68.7449   47.3576   54.1336 C   0  0  0  0  0  0  0  0  0  0  0  0
   69.7527   49.4576   51.4575 O   0  0  0  0  0  0  0  0  0  0  0  0
   69.7774   48.4629   52.1641 C   0  0  0  0  0  0  0  0  0  0  0  0
   69.9932   47.2523   51.4855 O   0  0  0  0  0  0  0  0  0  0  0  0
   70.9930   50.3331   54.0995 C   0  0  0  0  0  0  0  0  0  0  0  0
   72.2684   50.1361   54.1134 O   0  0  0  0  0  0  0  0  0  0  0  0
   70.6295   51.5849   53.7372 O   0  0  0  0  0  0  0  0  0  0  0  0
   67.9516   48.7336   57.1864 C   0  0  0  0  0  0  0  0  0  0  0  0
   66.9575   48.0222   57.4423 O   0  0  0  0  0  0  0  0  0  0  0  0
   68.0020   50.0599   57.5935 O   0  0  0  0  0  0  0  0  0  0  0  0
  7  8  2  0  0  0
  8  9  1  0  0  0
  8  1  1  0  0  0
  1  2  2  0  0  0
  1  6  1  0  0  0
  2 10  1  0  0  0
  2  3  1  0  0  0
 10 11  2  0  0  0
 10 12  1  0  0  0
  3  4  1  0  0  0
  4 13  1  0  0  0
  4  5  1  0  0  0
 13 14  2  0  0  0
 13 15  1  0  0  0
  5  6  2  0  0  0
M  END
> <minimizedAffinity>
-6.71859

$$$$
../data/cho_sim50/141076116.pdb


 20 20  0  0  0  0  0  0  0  0999 V2000
   69.8758   50.4181   54.1000 C   0  0  0  0  0  0  0  0  0  0  0  0
   70.0366   51.1328   53.0945 O   0  0  0  0  0  0  0  0  0  0  0  0
   68.9635   49.3750   54.0166 O   0  0  0  0  0  0  0  0  0  0  0  0
   67.9075   47.6863   56.9368 O   0  0  0  0  0  0  0  0  0  0  0  0
   68.3435   47.3010   55.8338 C   0  0  0  0  0  0  0  0  0  0  0  0
   68.5296   47.1393   54.5342 C   0  0  0  0  0  0  0  0  0  0  0  0
   67.8586   46.0775   53.8022 C   0  0  0  0  0  0  0  0  0  0  0  0
   68.0043   45.8666   52.5044 C   0  0  0  0  0  0  0  0  0  0  0  0
   68.8923   46.7576   51.7797 C   0  0  0  0  0  0  0  0  0  0  0  0
   69.5421   47.7524   52.3735 C   0  0  0  0  0  0  0  0  0  0  0  0
   69.4450   48.0655   53.8100 C   0  0  0  0  0  0  0  0  0  0  0  0
   70.6504   50.7039   55.3228 C   0  0  0  0  0  0  0  0  0  0  0  0
   70.8291   52.0951   55.4541 O   0  0  0  0  0  0  0  0  0  0  0  0
   71.9451   52.7430   55.8585 C   0  0  0  0  0  0  0  0  0  0  0  0
   72.0786   52.7833   57.1500 O   0  0  0  0  0  0  0  0  0  0  0  0
   72.9902   53.3833   55.1446 C   0  0  0  0  0  0  0  0  0  0  0  0
   74.0224   52.7895   54.6169 C   0  0  0  0  0  0  0  0  0  0  0  0
   74.2470   51.3789   54.6882 C   0  0  0  0  0  0  0  0  0  0  0  0
   73.9279   50.4998   53.8943 O   0  0  0  0  0  0  0  0  0  0  0  0
   74.9390   50.9190   55.8420 O   0  0  0  0  0  0  0  0  0  0  0  0
  4  5  2  0  0  0
  5  6  2  0  0  0
  6  7  1  0  0  0
  6 11  1  0  0  0
  7  8  2  0  0  0
  8  9  1  0  0  0
  9 10  2  0  0  0
 10 11  1  0  0  0
 11  3  1  0  0  0
  3  1  1  0  0  0
  1  2  2  0  0  0
  1 12  1  0  0  0
 12 13  1  0  0  0
 13 14  1  0  0  0
 14 15  2  0  0  0
 14 16  1  0  0  0
 16 17  2  0  0  0
 17 18  1  0  0  0
 18 19  2  0  0  0
 18 20  1  0  0  0
M  END
> <minimizedAffinity>
-7.03527

$$$$
../data/cho_sim50/141076116.pdb


 20 20  0  0  0  0  0  0  0  0999 V2000
   69.3099   48.9412   55.9883 C   0  0  0  0  0  0  0  0  0  0  0  0
   68.5749   48.8830   56.9955 O   0  0  0  0  0  0  0  0  0  0  0  0
   68.7521   48.5470   54.7953 O   0  0  0  0  0  0  0  0  0  0  0  0
   70.0161   49.4438   51.5032 O   0  0  0  0  0  0  0  0  0  0  0  0
   69.6863   48.3502   51.9958 C   0  0  0  0  0  0  0  0  0  0  0  0
   69.0794   47.4018   52.7114 C   0  0  0  0  0  0  0  0  0  0  0  0
   68.3174   46.4263   51.9657 C   0  0  0  0  0  0  0  0  0  0  0  0
   67.6670   45.4338   52.5472 C   0  0  0  0  0  0  0  0  0  0  0  0
   67.7648   45.3825   53.9976 C   0  0  0  0  0  0  0  0  0  0  0  0
   68.4352   46.2297   54.7322 C   0  0  0  0  0  0  0  0  0  0  0  0
   69.1758   47.3483   54.1557 C   0  0  0  0  0  0  0  0  0  0  0  0
   70.6812   49.3972   56.0408 C   0  0  0  0  0  0  0  0  0  0  0  0
   71.2164   49.9528   54.9013 O   0  0  0  0  0  0  0  0  0  0  0  0
   70.9952   51.1923   54.3925 C   0  0  0  0  0  0  0  0  0  0  0  0
   72.0988   51.8559   54.2958 O   0  0  0  0  0  0  0  0  0  0  0  0
   69.7629   51.7952   53.9841 C   0  0  0  0  0  0  0  0  0  0  0  0
   68.9559   52.5009   54.7171 C   0  0  0  0  0  0  0  0  0  0  0  0
   69.1857   52.7954   56.0974 C   0  0  0  0  0  0  0  0  0  0  0  0
   68.7648   52.2340   57.1070 O   0  0  0  0  0  0  0  0  0  0  0  0
   70.0308   53.9101   56.3619 O   0  0  0  0  0  0  0  0  0  0  0  0
  4  5  2  0  0  0
  5  6  2  0  0  0
  6  7  1  0  0  0
  6 11  1  0  0  0
  7  8  2  0  0  0
  8  9  1  0  0  0
  9 10  2  0  0  0
 10 11  1  0  0  0
 11  3  1  0  0  0
  3  1  1  0  0  0
  1  2  2  0  0  0
  1 12  1  0  0  0
 12 13  1  0  0  0
 13 14  1  0  0  0
 14 15  2  0  0  0
 14 16  1  0  0  0
 16 17  2  0  0  0
 17 18  1  0  0  0
 18 19  2  0  0  0
 18 20  1  0  0  0
M  END
> <minimizedAffinity>
-6.88244

$$$$
../data/cho_sim50/141076116.pdb


 20 20  0  0  0  0  0  0  0  0999 V2000
   69.4247   48.8866   55.9885 C   0  0  0  0  0  0  0  0  0  0  0  0
   68.7714   48.6520   57.0639 O   0  0  0  0  0  0  0  0  0  0  0  0
   68.8143   48.5135   54.8017 O   0  0  0  0  0  0  0  0  0  0  0  0
   69.9976   49.4145   51.4106 O   0  0  0  0  0  0  0  0  0  0  0  0
   69.6069   48.4133   52.0628 C   0  0  0  0  0  0  0  0  0  0  0  0
   69.0209   47.4291   52.6769 C   0  0  0  0  0  0  0  0  0  0  0  0
   68.2675   46.4705   51.9079 C   0  0  0  0  0  0  0  0  0  0  0  0
   67.6484   45.4436   52.4926 C   0  0  0  0  0  0  0  0  0  0  0  0
   67.7568   45.3153   53.9516 C   0  0  0  0  0  0  0  0  0  0  0  0
   68.4261   46.1549   54.7004 C   0  0  0  0  0  0  0  0  0  0  0  0
   69.1287   47.3007   54.1338 C   0  0  0  0  0  0  0  0  0  0  0  0
   70.7492   49.5204   56.0431 C   0  0  0  0  0  0  0  0  0  0  0  0
   71.1272   49.8609   54.7001 O   0  0  0  0  0  0  0  0  0  0  0  0
   71.0651   51.2463   54.3579 C   0  0  0  0  0  0  0  0  0  0  0  0
   72.1528   51.8490   54.4410 O   0  0  0  0  0  0  0  0  0  0  0  0
   69.7753   51.7361   53.9729 C   0  0  0  0  0  0  0  0  0  0  0  0
   68.9772   52.4824   54.6888 C   0  0  0  0  0  0  0  0  0  0  0  0
   69.2941   52.9330   56.0105 C   0  0  0  0  0  0  0  0  0  0  0  0
   70.0174   53.8894   56.2701 O   0  0  0  0  0  0  0  0  0  0  0  0
   68.7086   52.1910   57.0675 O   0  0  0  0  0  0  0  0  0  0  0  0
  4  5  2  0  0  0
  5  6  2  0  0  0
  6  7  1  0  0  0
  6 11  1  0  0  0
  7  8  2  0  0  0
  8  9  1  0  0  0
  9 10  2  0  0  0
 10 11  1  0  0  0
 11  3  1  0  0  0
  3  1  1  0  0  0
  1  2  2  0  0  0
  1 12  1  0  0  0
 12 13  1  0  0  0
 13 14  1  0  0  0
 14 15  2  0  0  0
 14 16  1  0  0  0
 16 17  2  0  0  0
 17 18  1  0  0  0
 18 19  2  0  0  0
 18 20  1  0  0  0
M  END
> <minimizedAffinity>
-6.89595

$$$$
../data/cho_sim50/141076116.pdb


 20 20  0  0  0  0  0  0  0  0999 V2000
   70.3854   50.5263   54.1638 C   0  0  0  0  0  0  0  0  0  0  0  0
   70.2725   51.4311   53.2967 O   0  0  0  0  0  0  0  0  0  0  0  0
   69.4245   49.5478   54.1949 O   0  0  0  0  0  0  0  0  0  0  0  0
   67.9847   47.6239   56.9905 O   0  0  0  0  0  0  0  0  0  0  0  0
   68.2657   47.4035   55.7852 C   0  0  0  0  0  0  0  0  0  0  0  0
   68.5906   47.3197   54.5316 C   0  0  0  0  0  0  0  0  0  0  0  0
   67.8916   46.3287   53.7199 C   0  0  0  0  0  0  0  0  0  0  0  0
   68.1491   46.1643   52.4314 C   0  0  0  0  0  0  0  0  0  0  0  0
   69.1559   46.9941   51.8143 C   0  0  0  0  0  0  0  0  0  0  0  0
   69.8132   47.8948   52.4850 C   0  0  0  0  0  0  0  0  0  0  0  0
   69.6313   48.1906   53.9314 C   0  0  0  0  0  0  0  0  0  0  0  0
   71.5489   50.6053   55.0700 C   0  0  0  0  0  0  0  0  0  0  0  0
   72.7681   50.6293   54.3992 O   0  0  0  0  0  0  0  0  0  0  0  0
   73.6996   51.6007   54.6751 C   0  0  0  0  0  0  0  0  0  0  0  0
   74.7555   51.1656   55.3131 O   0  0  0  0  0  0  0  0  0  0  0  0
   73.6963   52.9945   54.3800 C   0  0  0  0  0  0  0  0  0  0  0  0
   73.3745   54.0099   55.1237 C   0  0  0  0  0  0  0  0  0  0  0  0
   72.9368   53.8518   56.4744 C   0  0  0  0  0  0  0  0  0  0  0  0
   71.6691   53.9218   56.6849 O   0  0  0  0  0  0  0  0  0  0  0  0
   73.7205   53.6362   57.5514 O   0  0  0  0  0  0  0  0  0  0  0  0
  4  5  2  0  0  0
  5  6  2  0  0  0
  6  7  1  0  0  0
  6 11  1  0  0  0
  7  8  2  0  0  0
  8  9  1  0  0  0
  9 10  2  0  0  0
 10 11  1  0  0  0
 11  3  1  0  0  0
  3  1  1  0  0  0
  1  2  2  0  0  0
  1 12  1  0  0  0
 12 13  1  0  0  0
 13 14  1  0  0  0
 14 15  2  0  0  0
 14 16  1  0  0  0
 16 17  2  0  0  0
 17 18  1  0  0  0
 18 19  2  0  0  0
 18 20  1  0  0  0
M  END
> <minimizedAffinity>
-7.08991

$$$$
../data/cho_sim50/141076156.pdb


 20 20  0  0  0  0  0  0  0  0999 V2000
   71.2368   50.0901   55.4216 C   0  0  0  0  0  0  0  0  0  0  0  0
   72.4357   50.0310   55.7503 O   0  0  0  0  0  0  0  0  0  0  0  0
   70.2872   50.0384   56.4175 O   0  0  0  0  0  0  0  0  0  0  0  0
   69.2715   53.3609   56.2178 O   0  0  0  0  0  0  0  0  0  0  0  0
   68.6201   52.2852   56.2319 C   0  0  0  0  0  0  0  0  0  0  0  0
   68.2232   51.0843   56.6480 C   0  0  0  0  0  0  0  0  0  0  0  0
   67.0938   51.0230   57.5617 C   0  0  0  0  0  0  0  0  0  0  0  0
   66.6779   49.8462   57.9905 C   0  0  0  0  0  0  0  0  0  0  0  0
   67.3424   48.6311   57.5545 C   0  0  0  0  0  0  0  0  0  0  0  0
   68.3690   48.6268   56.7300 C   0  0  0  0  0  0  0  0  0  0  0  0
   68.9023   49.8653   56.2003 C   0  0  0  0  0  0  0  0  0  0  0  0
   70.7683   50.2135   54.0179 C   0  0  0  0  0  0  0  0  0  0  0  0
   70.8885   48.9993   53.3110 O   0  0  0  0  0  0  0  0  0  0  0  0
   69.9792   48.6968   52.3241 C   0  0  0  0  0  0  0  0  0  0  0  0
   69.8381   49.4959   51.3641 O   0  0  0  0  0  0  0  0  0  0  0  0
   69.1680   47.4618   52.3649 C   0  0  0  0  0  0  0  0  0  0  0  0
   68.7722   46.9773   53.5306 C   0  0  0  0  0  0  0  0  0  0  0  0
   67.9707   45.7599   53.6014 C   0  0  0  0  0  0  0  0  0  0  0  0
   67.3027   45.3535   52.6415 O   0  0  0  0  0  0  0  0  0  0  0  0
   67.9558   45.0306   54.7844 O   0  0  0  0  0  0  0  0  0  0  0  0
  4  5  2  0  0  0
  5  6  2  0  0  0
  6  7  1  0  0  0
  6 11  1  0  0  0
  7  8  2  0  0  0
  8  9  1  0  0  0
  9 10  2  0  0  0
 10 11  1  0  0  0
 11  3  1  0  0  0
  3  1  1  0  0  0
  1  2  2  0  0  0
  1 12  1  0  0  0
 12 13  1  0  0  0
 13 14  1  0  0  0
 14 15  2  0  0  0
 14 16  1  0  0  0
 16 17  2  0  0  0
 17 18  1  0  0  0
 18 19  2  0  0  0
 18 20  1  0  0  0
M  END
> <minimizedAffinity>
-7.56277

$$$$
../data/cho_sim50/141076156.pdb


 20 20  0  0  0  0  0  0  0  0999 V2000
   71.3086   49.9415   55.8456 C   0  0  0  0  0  0  0  0  0  0  0  0
   72.4669   49.6856   56.2624 O   0  0  0  0  0  0  0  0  0  0  0  0
   70.2571   49.8001   56.7336 O   0  0  0  0  0  0  0  0  0  0  0  0
   69.3505   53.3045   56.0433 O   0  0  0  0  0  0  0  0  0  0  0  0
   68.6988   52.2384   56.1141 C   0  0  0  0  0  0  0  0  0  0  0  0
   68.2442   51.1001   56.6123 C   0  0  0  0  0  0  0  0  0  0  0  0
   67.0809   51.1487   57.4845 C   0  0  0  0  0  0  0  0  0  0  0  0
   66.5615   50.0648   58.0243 C   0  0  0  0  0  0  0  0  0  0  0  0
   67.1626   48.7744   57.7455 C   0  0  0  0  0  0  0  0  0  0  0  0
   68.2151   48.6960   56.9609 C   0  0  0  0  0  0  0  0  0  0  0  0
   68.8873   49.8257   56.2992 C   0  0  0  0  0  0  0  0  0  0  0  0
   71.1503   50.3754   54.4363 C   0  0  0  0  0  0  0  0  0  0  0  0
   71.3182   49.3367   53.5196 O   0  0  0  0  0  0  0  0  0  0  0  0
   70.3273   48.7858   52.7477 C   0  0  0  0  0  0  0  0  0  0  0  0
   70.1123   49.2761   51.6101 O   0  0  0  0  0  0  0  0  0  0  0  0
   69.5081   47.6512   53.1900 C   0  0  0  0  0  0  0  0  0  0  0  0
   68.7050   47.0229   52.3484 C   0  0  0  0  0  0  0  0  0  0  0  0
   67.8748   45.8938   52.7414 C   0  0  0  0  0  0  0  0  0  0  0  0
   66.9877   45.4875   51.9590 O   0  0  0  0  0  0  0  0  0  0  0  0
   68.0282   45.2536   53.9439 O   0  0  0  0  0  0  0  0  0  0  0  0
  4  5  2  0  0  0
  5  6  2  0  0  0
  6  7  1  0  0  0
  6 11  1  0  0  0
  7  8  2  0  0  0
  8  9  1  0  0  0
  9 10  2  0  0  0
 10 11  1  0  0  0
 11  3  1  0  0  0
  3  1  1  0  0  0
  1  2  2  0  0  0
  1 12  1  0  0  0
 12 13  1  0  0  0
 13 14  1  0  0  0
 14 15  2  0  0  0
 14 16  1  0  0  0
 16 17  2  0  0  0
 17 18  1  0  0  0
 18 19  2  0  0  0
 18 20  1  0  0  0
M  END
> <minimizedAffinity>
-7.42878

$$$$
../data/cho_sim50/141076156.pdb


 20 20  0  0  0  0  0  0  0  0999 V2000
   71.0694   50.4091   55.5338 C   0  0  0  0  0  0  0  0  0  0  0  0
   72.1801   50.7818   55.9593 O   0  0  0  0  0  0  0  0  0  0  0  0
   70.1426   49.9437   56.4555 O   0  0  0  0  0  0  0  0  0  0  0  0
   68.9487   46.4102   56.3164 O   0  0  0  0  0  0  0  0  0  0  0  0
   68.8148   47.5703   56.7734 C   0  0  0  0  0  0  0  0  0  0  0  0
   68.2325   48.7224   56.9638 C   0  0  0  0  0  0  0  0  0  0  0  0
   67.1167   48.8901   57.8867 C   0  0  0  0  0  0  0  0  0  0  0  0
   66.5578   50.0700   58.0498 C   0  0  0  0  0  0  0  0  0  0  0  0
   67.0612   51.2040   57.3028 C   0  0  0  0  0  0  0  0  0  0  0  0
   68.0550   51.1335   56.4600 C   0  0  0  0  0  0  0  0  0  0  0  0
   68.7545   49.8700   56.1980 C   0  0  0  0  0  0  0  0  0  0  0  0
   70.6635   50.4289   54.1112 C   0  0  0  0  0  0  0  0  0  0  0  0
   70.9669   49.2505   53.4280 O   0  0  0  0  0  0  0  0  0  0  0  0
   70.1672   48.6310   52.5071 C   0  0  0  0  0  0  0  0  0  0  0  0
   70.2695   48.9451   51.3093 O   0  0  0  0  0  0  0  0  0  0  0  0
   69.1888   47.6041   52.8913 C   0  0  0  0  0  0  0  0  0  0  0  0
   68.7465   46.7053   52.0203 C   0  0  0  0  0  0  0  0  0  0  0  0
   67.7783   45.6805   52.3783 C   0  0  0  0  0  0  0  0  0  0  0  0
   67.8047   45.2264   53.5476 O   0  0  0  0  0  0  0  0  0  0  0  0
   66.8424   45.1919   51.4990 O   0  0  0  0  0  0  0  0  0  0  0  0
  4  5  2  0  0  0
  5  6  2  0  0  0
  6  7  1  0  0  0
  6 11  1  0  0  0
  7  8  2  0  0  0
  8  9  1  0  0  0
  9 10  2  0  0  0
 10 11  1  0  0  0
 11  3  1  0  0  0
  3  1  1  0  0  0
  1  2  2  0  0  0
  1 12  1  0  0  0
 12 13  1  0  0  0
 13 14  1  0  0  0
 14 15  2  0  0  0
 14 16  1  0  0  0
 16 17  2  0  0  0
 17 18  1  0  0  0
 18 19  2  0  0  0
 18 20  1  0  0  0
M  END
> <minimizedAffinity>
-7.46298

$$$$
../data/cho_sim50/142110891.pdb


 18 18  0  0  0  0  0  0  0  0999 V2000
   69.3534   47.8618   53.3467 C   0  0  0  0  0  0  0  0  0  0  0  0
   69.7188   48.7197   54.2841 C   0  0  0  0  0  0  0  0  0  0  0  0
   69.3279   48.6693   55.6897 C   0  0  0  0  0  0  0  0  0  0  0  0
   68.4421   47.5414   56.0644 C   0  0  0  0  0  0  0  0  0  0  0  0
   69.0111   46.7387   57.0811 O   0  0  0  0  0  0  0  0  0  0  0  0
   68.0921   46.6443   54.9580 C   0  0  0  0  0  0  0  0  0  0  0  0
   68.4751   46.7434   53.7185 C   0  0  0  0  0  0  0  0  0  0  0  0
   69.9049   46.9601   51.2814 O   0  0  0  0  0  0  0  0  0  0  0  0
   69.7969   47.9981   51.9680 C   0  0  0  0  0  0  0  0  0  0  0  0
   70.1023   49.2095   51.3857 O   0  0  0  0  0  0  0  0  0  0  0  0
   68.7279   49.8728   56.1427 O   0  0  0  0  0  0  0  0  0  0  0  0
   69.3495   51.1051   56.0618 C   0  0  0  0  0  0  0  0  0  0  0  0
   68.8150   52.0368   55.3192 C   0  0  0  0  0  0  0  0  0  0  0  0
   67.6736   51.8231   54.6291 F   0  0  0  0  0  0  0  0  0  0  0  0
   69.4119   53.2436   55.2313 F   0  0  0  0  0  0  0  0  0  0  0  0
   70.5909   51.3818   56.7937 C   0  0  0  0  0  0  0  0  0  0  0  0
   70.5780   51.4550   58.0490 O   0  0  0  0  0  0  0  0  0  0  0  0
   71.8007   51.5703   56.1489 O   0  0  0  0  0  0  0  0  0  0  0  0
  8  9  2  0  0  0
  9 10  1  0  0  0
  9  1  1  0  0  0
  1  2  2  0  0  0
  1  7  1  0  0  0
  2  3  1  0  0  0
  3 11  1  0  0  0
  3  4  1  0  0  0
 11 12  1  0  0  0
 12 16  1  0  0  0
 12 13  2  0  0  0
 16 17  2  0  0  0
 16 18  1  0  0  0
 13 14  1  0  0  0
 13 15  1  0  0  0
  4  5  1  0  0  0
  4  6  1  0  0  0
  6  7  2  0  0  0
M  END
> <minimizedAffinity>
-7.04076

$$$$
../data/cho_sim50/142110891.pdb


 18 18  0  0  0  0  0  0  0  0999 V2000
   69.3501   47.9542   53.4267 C   0  0  0  0  0  0  0  0  0  0  0  0
   69.6195   48.9426   54.2299 C   0  0  0  0  0  0  0  0  0  0  0  0
   69.1992   48.9809   55.6216 C   0  0  0  0  0  0  0  0  0  0  0  0
   68.4431   47.8473   56.1174 C   0  0  0  0  0  0  0  0  0  0  0  0
   69.0431   47.2298   57.2496 O   0  0  0  0  0  0  0  0  0  0  0  0
   68.1801   46.7843   55.1691 C   0  0  0  0  0  0  0  0  0  0  0  0
   68.5860   46.8132   53.9345 C   0  0  0  0  0  0  0  0  0  0  0  0
   69.8777   46.9293   51.4121 O   0  0  0  0  0  0  0  0  0  0  0  0
   69.8106   47.9998   52.0459 C   0  0  0  0  0  0  0  0  0  0  0  0
   70.1620   49.1806   51.4539 O   0  0  0  0  0  0  0  0  0  0  0  0
   68.5139   50.2403   55.7877 O   0  0  0  0  0  0  0  0  0  0  0  0
   69.3125   51.2794   56.2668 C   0  0  0  0  0  0  0  0  0  0  0  0
   69.2802   52.4188   55.6106 C   0  0  0  0  0  0  0  0  0  0  0  0
   70.0471   53.4387   56.0578 F   0  0  0  0  0  0  0  0  0  0  0  0
   68.5216   52.6091   54.5209 F   0  0  0  0  0  0  0  0  0  0  0  0
   70.1407   51.1194   57.4307 C   0  0  0  0  0  0  0  0  0  0  0  0
   69.6132   50.9273   58.5582 O   0  0  0  0  0  0  0  0  0  0  0  0
   71.5305   51.1629   57.4071 O   0  0  0  0  0  0  0  0  0  0  0  0
  8  9  2  0  0  0
  9 10  1  0  0  0
  9  1  1  0  0  0
  1  2  2  0  0  0
  1  7  1  0  0  0
  2  3  1  0  0  0
  3 11  1  0  0  0
  3  4  1  0  0  0
 11 12  1  0  0  0
 12 16  1  0  0  0
 12 13  2  0  0  0
 16 17  2  0  0  0
 16 18  1  0  0  0
 13 14  1  0  0  0
 13 15  1  0  0  0
  4  5  1  0  0  0
  4  6  1  0  0  0
  6  7  2  0  0  0
M  END
> <minimizedAffinity>
-6.91882

$$$$
../data/cho_sim50/142110891.pdb


 18 18  0  0  0  0  0  0  0  0999 V2000
   69.1971   47.7780   52.9729 C   0  0  0  0  0  0  0  0  0  0  0  0
   69.2962   47.8678   54.2770 C   0  0  0  0  0  0  0  0  0  0  0  0
   68.6759   46.9231   55.1959 C   0  0  0  0  0  0  0  0  0  0  0  0
   67.9159   45.8351   54.6144 C   0  0  0  0  0  0  0  0  0  0  0  0
   68.2430   44.5661   55.1603 O   0  0  0  0  0  0  0  0  0  0  0  0
   67.8466   45.7950   53.1704 C   0  0  0  0  0  0  0  0  0  0  0  0
   68.4288   46.6789   52.4135 C   0  0  0  0  0  0  0  0  0  0  0  0
   70.5151   48.3897   51.1041 O   0  0  0  0  0  0  0  0  0  0  0  0
   69.8435   48.7615   52.0748 C   0  0  0  0  0  0  0  0  0  0  0  0
   69.7052   50.1213   52.3076 O   0  0  0  0  0  0  0  0  0  0  0  0
   67.9646   47.6087   56.2453 O   0  0  0  0  0  0  0  0  0  0  0  0
   68.7404   48.2004   57.2160 C   0  0  0  0  0  0  0  0  0  0  0  0
   68.4300   49.3981   57.6465 C   0  0  0  0  0  0  0  0  0  0  0  0
   67.3683   50.1064   57.1840 F   0  0  0  0  0  0  0  0  0  0  0  0
   69.1896   49.9951   58.6066 F   0  0  0  0  0  0  0  0  0  0  0  0
   69.8937   47.5218   57.7709 C   0  0  0  0  0  0  0  0  0  0  0  0
   71.0756   47.9525   57.6223 O   0  0  0  0  0  0  0  0  0  0  0  0
   69.7817   46.3400   58.5119 O   0  0  0  0  0  0  0  0  0  0  0  0
  8  9  2  0  0  0
  9 10  1  0  0  0
  9  1  1  0  0  0
  1  2  2  0  0  0
  1  7  1  0  0  0
  2  3  1  0  0  0
  3 11  1  0  0  0
  3  4  1  0  0  0
 11 12  1  0  0  0
 12 16  1  0  0  0
 12 13  2  0  0  0
 16 17  2  0  0  0
 16 18  1  0  0  0
 13 14  1  0  0  0
 13 15  1  0  0  0
  4  5  1  0  0  0
  4  6  1  0  0  0
  6  7  2  0  0  0
M  END
> <minimizedAffinity>
-7.12573

$$$$
../data/cho_sim50/144590668.pdb


 13 13  0  0  0  0  0  0  0  0999 V2000
   69.3701   47.7550   53.2671 C   0  0  0  0  0  0  0  0  0  0  0  0
   68.9943   47.8549   54.5056 C   0  0  0  0  0  0  0  0  0  0  0  0
   68.0776   46.9210   55.1531 C   0  0  0  0  0  0  0  0  0  0  0  0
   67.6085   45.8296   54.2759 C   0  0  0  0  0  0  0  0  0  0  0  0
   67.9660   44.5677   54.8292 O   0  0  0  0  0  0  0  0  0  0  0  0
   68.0930   45.8110   52.8991 C   0  0  0  0  0  0  0  0  0  0  0  0
   68.9140   46.6777   52.3679 C   0  0  0  0  0  0  0  0  0  0  0  0
   70.3084   48.7675   52.7181 C   0  0  0  0  0  0  0  0  0  0  0  0
   70.3273   48.9203   51.4865 O   0  0  0  0  0  0  0  0  0  0  0  0
   70.7657   50.7426   54.1208 C   0  0  0  0  0  0  0  0  0  0  0  0
   71.1335   49.5213   53.5081 O   0  0  0  0  0  0  0  0  0  0  0  0
   68.6479   46.3707   56.3257 O   0  0  0  0  0  0  0  0  0  0  0  0
   69.3705   47.3590   57.0300 C   0  0  0  0  0  0  0  0  0  0  0  0
 10 11  1  0  0  0
 11  8  1  0  0  0
  8  9  2  0  0  0
  8  1  1  0  0  0
  1  2  2  0  0  0
  1  7  1  0  0  0
  2  3  1  0  0  0
  3 12  1  0  0  0
  3  4  1  0  0  0
 12 13  1  0  0  0
  4  5  1  0  0  0
  4  6  1  0  0  0
  6  7  2  0  0  0
M  END
> <minimizedAffinity>
-5.86807

$$$$
../data/cho_sim50/146226013.pdb


 16 16  0  0  0  0  0  0  0  0999 V2000
   70.1634   51.6525   54.2679 C   0  0  0  0  0  0  0  0  0  0  0  0
   69.6148   52.5810   54.9002 O   0  0  0  0  0  0  0  0  0  0  0  0
   69.3950   50.4604   53.8510 C   0  0  0  0  0  0  0  0  0  0  0  0
   69.9088   49.2564   53.9198 C   0  0  0  0  0  0  0  0  0  0  0  0
   69.2077   48.0359   53.5248 C   0  0  0  0  0  0  0  0  0  0  0  0
   69.0803   47.7651   52.2391 C   0  0  0  0  0  0  0  0  0  0  0  0
   68.3969   46.5720   51.7646 C   0  0  0  0  0  0  0  0  0  0  0  0
   67.8360   45.6464   52.7653 C   0  0  0  0  0  0  0  0  0  0  0  0
   68.0124   46.0054   54.1716 C   0  0  0  0  0  0  0  0  0  0  0  0
   68.6516   47.1176   54.4946 C   0  0  0  0  0  0  0  0  0  0  0  0
   71.5075   51.7618   53.9643 O   0  0  0  0  0  0  0  0  0  0  0  0
   72.6520   50.9840   55.8657 C   0  0  0  0  0  0  0  0  0  0  0  0
   72.4225   52.1861   54.9561 C   0  0  0  0  0  0  0  0  0  0  0  0
   73.6718   52.6326   54.3285 C   0  0  0  0  0  0  0  0  0  0  0  0
   73.6692   53.0749   53.1742 O   0  0  0  0  0  0  0  0  0  0  0  0
   74.8940   52.5760   54.9997 O   0  0  0  0  0  0  0  0  0  0  0  0
 13 12  1  0  0  0
 13 11  1  0  0  0
 13 14  1  0  0  0
 11  1  1  0  0  0
  1  2  2  0  0  0
  1  3  1  0  0  0
  3  4  2  0  0  0
  4  5  1  0  0  0
  5  6  2  0  0  0
  5 10  1  0  0  0
  6  7  1  0  0  0
  7  8  1  0  0  0
  8  9  1  0  0  0
  9 10  2  0  0  0
 14 15  2  0  0  0
 14 16  1  0  0  0
M  END
> <minimizedAffinity>
-6.65851

$$$$
../data/cho_sim50/146226013.pdb


 16 16  0  0  0  0  0  0  0  0999 V2000
   70.5540   51.6686   54.3493 C   0  0  0  0  0  0  0  0  0  0  0  0
   69.9841   52.5338   55.0556 O   0  0  0  0  0  0  0  0  0  0  0  0
   69.7988   50.5087   53.8404 C   0  0  0  0  0  0  0  0  0  0  0  0
   70.1973   49.2924   54.1561 C   0  0  0  0  0  0  0  0  0  0  0  0
   69.4559   48.1417   53.6560 C   0  0  0  0  0  0  0  0  0  0  0  0
   69.5073   47.8655   52.3636 C   0  0  0  0  0  0  0  0  0  0  0  0
   68.8112   46.7462   51.7490 C   0  0  0  0  0  0  0  0  0  0  0  0
   68.0059   45.8759   52.6277 C   0  0  0  0  0  0  0  0  0  0  0  0
   67.9980   46.2432   54.0427 C   0  0  0  0  0  0  0  0  0  0  0  0
   68.6662   47.2869   54.5147 C   0  0  0  0  0  0  0  0  0  0  0  0
   71.8738   51.7970   54.0486 O   0  0  0  0  0  0  0  0  0  0  0  0
   73.3308   53.5072   54.8721 C   0  0  0  0  0  0  0  0  0  0  0  0
   72.8836   52.0695   54.9992 C   0  0  0  0  0  0  0  0  0  0  0  0
   74.0145   51.1317   54.7266 C   0  0  0  0  0  0  0  0  0  0  0  0
   73.9102   50.4066   53.7122 O   0  0  0  0  0  0  0  0  0  0  0  0
   75.1243   51.0537   55.5391 O   0  0  0  0  0  0  0  0  0  0  0  0
 13 12  1  0  0  0
 13 11  1  0  0  0
 13 14  1  0  0  0
 11  1  1  0  0  0
  1  2  2  0  0  0
  1  3  1  0  0  0
  3  4  2  0  0  0
  4  5  1  0  0  0
  5  6  2  0  0  0
  5 10  1  0  0  0
  6  7  1  0  0  0
  7  8  1  0  0  0
  8  9  1  0  0  0
  9 10  2  0  0  0
 14 15  2  0  0  0
 14 16  1  0  0  0
M  END
> <minimizedAffinity>
-6.73860

$$$$
../data/cho_sim50/146226015.pdb


 16 16  0  0  0  0  0  0  0  0999 V2000
   70.5991   51.6335   54.4821 C   0  0  0  0  0  0  0  0  0  0  0  0
   70.1533   52.4032   55.3629 O   0  0  0  0  0  0  0  0  0  0  0  0
   69.7569   50.5427   54.0310 C   0  0  0  0  0  0  0  0  0  0  0  0
   70.2083   49.3227   54.0677 C   0  0  0  0  0  0  0  0  0  0  0  0
   69.4316   48.1481   53.6329 C   0  0  0  0  0  0  0  0  0  0  0  0
   69.2940   47.8704   52.3506 C   0  0  0  0  0  0  0  0  0  0  0  0
   68.5413   46.7259   51.8080 C   0  0  0  0  0  0  0  0  0  0  0  0
   67.9044   45.8305   52.7959 C   0  0  0  0  0  0  0  0  0  0  0  0
   68.0942   46.1948   54.2079 C   0  0  0  0  0  0  0  0  0  0  0  0
   68.7891   47.2474   54.5590 C   0  0  0  0  0  0  0  0  0  0  0  0
   71.8704   51.8745   53.9959 O   0  0  0  0  0  0  0  0  0  0  0  0
   73.3784   53.5318   54.7262 C   0  0  0  0  0  0  0  0  0  0  0  0
   72.9265   52.0954   54.8994 C   0  0  0  0  0  0  0  0  0  0  0  0
   74.0441   51.1418   54.6810 C   0  0  0  0  0  0  0  0  0  0  0  0
   73.9209   50.3050   53.7614 O   0  0  0  0  0  0  0  0  0  0  0  0
   75.1918   51.1492   55.4461 O   0  0  0  0  0  0  0  0  0  0  0  0
 13 12  1  0  0  0
 13 11  1  0  0  0
 13 14  1  0  0  0
 11  1  1  0  0  0
  1  2  2  0  0  0
  1  3  1  0  0  0
  3  4  2  0  0  0
  4  5  1  0  0  0
  5  6  2  0  0  0
  5 10  1  0  0  0
  6  7  1  0  0  0
  7  8  1  0  0  0
  8  9  1  0  0  0
  9 10  2  0  0  0
 14 15  2  0  0  0
 14 16  1  0  0  0
M  END
> <minimizedAffinity>
-6.71540

$$$$
../data/cho_sim50/146226015.pdb


 16 16  0  0  0  0  0  0  0  0999 V2000
   70.0410   51.5284   54.2526 C   0  0  0  0  0  0  0  0  0  0  0  0
   69.5393   52.5834   54.7182 O   0  0  0  0  0  0  0  0  0  0  0  0
   69.2546   50.3386   53.9711 C   0  0  0  0  0  0  0  0  0  0  0  0
   69.8372   49.2028   53.6895 C   0  0  0  0  0  0  0  0  0  0  0  0
   69.1274   47.9545   53.3925 C   0  0  0  0  0  0  0  0  0  0  0  0
   68.9052   47.5753   52.1430 C   0  0  0  0  0  0  0  0  0  0  0  0
   68.2118   46.3566   51.7510 C   0  0  0  0  0  0  0  0  0  0  0  0
   67.7206   45.4772   52.8355 C   0  0  0  0  0  0  0  0  0  0  0  0
   68.0001   45.9571   54.1908 C   0  0  0  0  0  0  0  0  0  0  0  0
   68.6391   47.0811   54.4575 C   0  0  0  0  0  0  0  0  0  0  0  0
   71.4202   51.5638   54.0179 O   0  0  0  0  0  0  0  0  0  0  0  0
   72.0002   50.8811   56.2627 C   0  0  0  0  0  0  0  0  0  0  0  0
   72.3464   51.7182   55.0478 C   0  0  0  0  0  0  0  0  0  0  0  0
   73.7328   51.4708   54.6486 C   0  0  0  0  0  0  0  0  0  0  0  0
   74.0000   50.5336   53.8559 O   0  0  0  0  0  0  0  0  0  0  0  0
   74.7591   52.2486   55.1250 O   0  0  0  0  0  0  0  0  0  0  0  0
 13 12  1  0  0  0
 13 11  1  0  0  0
 13 14  1  0  0  0
 11  1  1  0  0  0
  1  2  2  0  0  0
  1  3  1  0  0  0
  3  4  2  0  0  0
  4  5  1  0  0  0
  5  6  2  0  0  0
  5 10  1  0  0  0
  6  7  1  0  0  0
  7  8  1  0  0  0
  8  9  1  0  0  0
  9 10  2  0  0  0
 14 15  2  0  0  0
 14 16  1  0  0  0
M  END
> <minimizedAffinity>
-6.73177

$$$$
../data/cho_sim50/150972446.pdb


 12 12  0  0  0  0  0  0  0  0999 V2000
   68.4721   46.5349   53.9315 C   0  0  0  0  0  0  0  0  0  0  0  0
   69.3824   47.4413   53.6368 C   0  0  0  0  0  0  0  0  0  0  0  0
   69.6823   47.8890   52.2449 C   0  0  0  0  0  0  0  0  0  0  0  0
   68.9041   47.2529   51.2792 O   0  0  0  0  0  0  0  0  0  0  0  0
   67.9483   46.3008   51.5988 C   0  0  0  0  0  0  0  0  0  0  0  0
   67.7196   45.9375   52.8527 C   0  0  0  0  0  0  0  0  0  0  0  0
   67.9909   47.0540   56.2049 O   0  0  0  0  0  0  0  0  0  0  0  0
   68.2824   46.1916   55.3360 C   0  0  0  0  0  0  0  0  0  0  0  0
   68.4132   44.8782   55.8002 O   0  0  0  0  0  0  0  0  0  0  0  0
   69.5153   49.3670   52.2335 C   0  0  0  0  0  0  0  0  0  0  0  0
   69.2631   50.0001   53.2844 O   0  0  0  0  0  0  0  0  0  0  0  0
   69.6370   50.0751   51.0584 O   0  0  0  0  0  0  0  0  0  0  0  0
  7  8  2  0  0  0
  8  9  1  0  0  0
  8  1  1  0  0  0
  1  2  2  0  0  0
  1  6  1  0  0  0
  2  3  1  0  0  0
  3 10  1  0  0  0
  3  4  1  0  0  0
 10 11  2  0  0  0
 10 12  1  0  0  0
  4  5  1  0  0  0
  5  6  2  0  0  0
M  END
> <minimizedAffinity>
-6.24060

$$$$
../data/cho_sim50/152762477.pdb


 16 16  0  0  0  0  0  0  0  0999 V2000
   70.5484   49.7560   55.4171 C   0  0  0  0  0  0  0  0  0  0  0  0
   70.4908   49.4981   53.9853 C   0  0  0  0  0  0  0  0  0  0  0  0
   69.8410   48.5140   53.3900 C   0  0  0  0  0  0  0  0  0  0  0  0
   69.1164   47.5996   54.2449 C   0  0  0  0  0  0  0  0  0  0  0  0
   69.1051   47.7409   55.5442 C   0  0  0  0  0  0  0  0  0  0  0  0
   69.8031   48.8060   56.2558 C   0  0  0  0  0  0  0  0  0  0  0  0
   68.8288   49.5379   57.2055 C   0  0  0  0  0  0  0  0  0  0  0  0
   69.8525   48.3534   51.9445 C   0  0  0  0  0  0  0  0  0  0  0  0
   69.8838   49.3877   51.2307 O   0  0  0  0  0  0  0  0  0  0  0  0
   69.8290   47.0893   51.3491 O   0  0  0  0  0  0  0  0  0  0  0  0
   71.9322   49.8209   55.7959 O   0  0  0  0  0  0  0  0  0  0  0  0
   72.1670   52.0724   56.3447 C   0  0  0  0  0  0  0  0  0  0  0  0
   72.6269   51.0163   55.7046 C   0  0  0  0  0  0  0  0  0  0  0  0
   73.8465   51.1362   54.9236 C   0  0  0  0  0  0  0  0  0  0  0  0
   74.8154   51.8690   55.3065 O   0  0  0  0  0  0  0  0  0  0  0  0
   73.9699   50.4452   53.7330 O   0  0  0  0  0  0  0  0  0  0  0  0
 12 13  2  0  0  0
 13 11  1  0  0  0
 13 14  1  0  0  0
  1 11  1  0  0  0
  1  2  1  0  0  0
  1  6  1  0  0  0
  2  3  2  0  0  0
  3  8  1  0  0  0
  3  4  1  0  0  0
  8  9  2  0  0  0
  8 10  1  0  0  0
  4  5  2  0  0  0
  5  6  1  0  0  0
  6  7  1  0  0  0
 14 15  2  0  0  0
 14 16  1  0  0  0
M  END
> <minimizedAffinity>
-6.84459

$$$$
../data/cho_sim50/152762477.pdb


 16 16  0  0  0  0  0  0  0  0999 V2000
   69.7722   49.0678   55.7347 C   0  0  0  0  0  0  0  0  0  0  0  0
   69.9868   49.1248   54.3037 C   0  0  0  0  0  0  0  0  0  0  0  0
   69.5726   48.1718   53.5026 C   0  0  0  0  0  0  0  0  0  0  0  0
   68.8729   46.9948   54.0053 C   0  0  0  0  0  0  0  0  0  0  0  0
   68.6626   46.9034   55.2986 C   0  0  0  0  0  0  0  0  0  0  0  0
   69.0835   47.9060   56.2780 C   0  0  0  0  0  0  0  0  0  0  0  0
   67.8003   48.3063   57.0279 C   0  0  0  0  0  0  0  0  0  0  0  0
   69.7919   48.2403   52.0755 C   0  0  0  0  0  0  0  0  0  0  0  0
   69.9505   49.3214   51.4524 O   0  0  0  0  0  0  0  0  0  0  0  0
   69.8282   47.0541   51.3608 O   0  0  0  0  0  0  0  0  0  0  0  0
   69.3277   50.3116   56.2720 O   0  0  0  0  0  0  0  0  0  0  0  0
   71.0905   51.4995   57.2216 C   0  0  0  0  0  0  0  0  0  0  0  0
   70.0198   51.4459   56.4640 C   0  0  0  0  0  0  0  0  0  0  0  0
   69.5736   52.6662   55.8135 C   0  0  0  0  0  0  0  0  0  0  0  0
   69.8271   53.8085   56.3060 O   0  0  0  0  0  0  0  0  0  0  0  0
   68.8559   52.6537   54.6326 O   0  0  0  0  0  0  0  0  0  0  0  0
 12 13  2  0  0  0
 13 11  1  0  0  0
 13 14  1  0  0  0
  1 11  1  0  0  0
  1  2  1  0  0  0
  1  6  1  0  0  0
  2  3  2  0  0  0
  3  8  1  0  0  0
  3  4  1  0  0  0
  8  9  2  0  0  0
  8 10  1  0  0  0
  4  5  2  0  0  0
  5  6  1  0  0  0
  6  7  1  0  0  0
 14 15  2  0  0  0
 14 16  1  0  0  0
M  END
> <minimizedAffinity>
-6.50168

$$$$
../data/cho_sim50/152762477.pdb


 16 16  0  0  0  0  0  0  0  0999 V2000
   70.4826   49.6398   55.4722 C   0  0  0  0  0  0  0  0  0  0  0  0
   70.4627   49.4659   54.0319 C   0  0  0  0  0  0  0  0  0  0  0  0
   69.8273   48.5049   53.4049 C   0  0  0  0  0  0  0  0  0  0  0  0
   69.0715   47.5114   54.1451 C   0  0  0  0  0  0  0  0  0  0  0  0
   69.0467   47.6045   55.4425 C   0  0  0  0  0  0  0  0  0  0  0  0
   69.7161   48.6288   56.2320 C   0  0  0  0  0  0  0  0  0  0  0  0
   68.7015   49.2937   57.1821 C   0  0  0  0  0  0  0  0  0  0  0  0
   69.8574   48.4025   51.9544 C   0  0  0  0  0  0  0  0  0  0  0  0
   69.8716   49.4210   51.2463 O   0  0  0  0  0  0  0  0  0  0  0  0
   69.8694   47.1577   51.3553 O   0  0  0  0  0  0  0  0  0  0  0  0
   71.8583   49.6704   55.8805 O   0  0  0  0  0  0  0  0  0  0  0  0
   72.3752   51.6670   56.9167 C   0  0  0  0  0  0  0  0  0  0  0  0
   72.6334   50.8076   55.9444 C   0  0  0  0  0  0  0  0  0  0  0  0
   73.7088   51.1298   55.0262 C   0  0  0  0  0  0  0  0  0  0  0  0
   74.4997   52.0568   55.3226 O   0  0  0  0  0  0  0  0  0  0  0  0
   73.9472   50.4921   53.8218 O   0  0  0  0  0  0  0  0  0  0  0  0
 12 13  2  0  0  0
 13 11  1  0  0  0
 13 14  1  0  0  0
  1 11  1  0  0  0
  1  2  1  0  0  0
  1  6  1  0  0  0
  2  3  2  0  0  0
  3  8  1  0  0  0
  3  4  1  0  0  0
  8  9  2  0  0  0
  8 10  1  0  0  0
  4  5  2  0  0  0
  5  6  1  0  0  0
  6  7  1  0  0  0
 14 15  2  0  0  0
 14 16  1  0  0  0
M  END
> <minimizedAffinity>
-6.84696

$$$$
../data/cho_sim50/152762478.pdb


 15 15  0  0  0  0  0  0  0  0999 V2000
   69.2402   48.8465   55.6515 C   0  0  0  0  0  0  0  0  0  0  0  0
   69.6347   48.8512   54.2443 C   0  0  0  0  0  0  0  0  0  0  0  0
   69.3716   47.8806   53.4040 C   0  0  0  0  0  0  0  0  0  0  0  0
   68.6326   46.6808   53.8539 C   0  0  0  0  0  0  0  0  0  0  0  0
   68.2468   46.6117   55.1120 C   0  0  0  0  0  0  0  0  0  0  0  0
   68.4977   47.6509   56.1215 C   0  0  0  0  0  0  0  0  0  0  0  0
   69.8120   47.9787   52.0029 C   0  0  0  0  0  0  0  0  0  0  0  0
   69.8935   46.9362   51.3186 O   0  0  0  0  0  0  0  0  0  0  0  0
   70.1261   49.2020   51.4663 O   0  0  0  0  0  0  0  0  0  0  0  0
   68.4661   50.0273   55.8577 O   0  0  0  0  0  0  0  0  0  0  0  0
   67.0887   50.9011   57.5715 C   0  0  0  0  0  0  0  0  0  0  0  0
   68.3035   50.6275   57.0849 C   0  0  0  0  0  0  0  0  0  0  0  0
   69.4809   50.9678   57.8600 C   0  0  0  0  0  0  0  0  0  0  0  0
   69.7047   50.5089   59.0101 O   0  0  0  0  0  0  0  0  0  0  0  0
   70.4195   51.8374   57.3344 O   0  0  0  0  0  0  0  0  0  0  0  0
 11 12  2  0  0  0
 12 10  1  0  0  0
 12 13  1  0  0  0
  1 10  1  0  0  0
  1  2  1  0  0  0
  1  6  1  0  0  0
  2  3  2  0  0  0
  3  7  1  0  0  0
  3  4  1  0  0  0
  7  8  2  0  0  0
  7  9  1  0  0  0
  4  5  2  0  0  0
  5  6  1  0  0  0
 13 14  2  0  0  0
 13 15  1  0  0  0
M  END
> <minimizedAffinity>
-6.43302

$$$$
../data/cho_sim50/152762478.pdb


 15 15  0  0  0  0  0  0  0  0999 V2000
   68.6914   46.4032   54.9849 C   0  0  0  0  0  0  0  0  0  0  0  0
   69.3839   47.4952   54.2934 C   0  0  0  0  0  0  0  0  0  0  0  0
   69.3511   47.7134   52.9908 C   0  0  0  0  0  0  0  0  0  0  0  0
   68.5701   46.8025   52.1716 C   0  0  0  0  0  0  0  0  0  0  0  0
   67.9062   45.7850   52.6887 C   0  0  0  0  0  0  0  0  0  0  0  0
   67.8989   45.4819   54.1402 C   0  0  0  0  0  0  0  0  0  0  0  0
   70.0886   48.8365   52.4539 C   0  0  0  0  0  0  0  0  0  0  0  0
   69.7479   49.3086   51.3504 O   0  0  0  0  0  0  0  0  0  0  0  0
   71.1501   49.3969   53.1241 O   0  0  0  0  0  0  0  0  0  0  0  0
   67.9138   46.9876   56.0364 O   0  0  0  0  0  0  0  0  0  0  0  0
   67.9818   48.9143   57.3215 C   0  0  0  0  0  0  0  0  0  0  0  0
   68.5257   47.7741   56.9961 C   0  0  0  0  0  0  0  0  0  0  0  0
   69.7507   47.3552   57.6387 C   0  0  0  0  0  0  0  0  0  0  0  0
   70.8208   47.9877   57.5058 O   0  0  0  0  0  0  0  0  0  0  0  0
   69.7432   46.2218   58.4234 O   0  0  0  0  0  0  0  0  0  0  0  0
 11 12  2  0  0  0
 12 10  1  0  0  0
 12 13  1  0  0  0
  1 10  1  0  0  0
  1  2  1  0  0  0
  1  6  1  0  0  0
  2  3  2  0  0  0
  3  7  1  0  0  0
  3  4  1  0  0  0
  7  8  2  0  0  0
  7  9  1  0  0  0
  4  5  2  0  0  0
  5  6  1  0  0  0
 13 14  2  0  0  0
 13 15  1  0  0  0
M  END
> <minimizedAffinity>
-6.61057

$$$$
../data/cho_sim50/154496778.pdb


 16 16  0  0  0  0  0  0  0  0999 V2000
   70.6578   50.5166   53.9576 C   0  0  0  0  0  0  0  0  0  0  0  0
   69.3952   50.4290   54.7992 C   0  0  0  0  0  0  0  0  0  0  0  0
   69.2339   51.6386   55.6418 C   0  0  0  0  0  0  0  0  0  0  0  0
   70.2886   52.1361   56.2620 C   0  0  0  0  0  0  0  0  0  0  0  0
   71.6396   51.5245   56.1453 C   0  0  0  0  0  0  0  0  0  0  0  0
   71.8183   50.9226   54.7958 C   0  0  0  0  0  0  0  0  0  0  0  0
   72.9382   50.7628   54.3789 O   0  0  0  0  0  0  0  0  0  0  0  0
   72.6434   52.5821   56.3374 C   0  0  0  0  0  0  0  0  0  0  0  0
   73.6059   52.4013   57.1018 O   0  0  0  0  0  0  0  0  0  0  0  0
   72.5169   53.7761   55.6678 O   0  0  0  0  0  0  0  0  0  0  0  0
   70.8565   49.2511   53.3558 O   0  0  0  0  0  0  0  0  0  0  0  0
   70.0654   48.8167   52.3220 C   0  0  0  0  0  0  0  0  0  0  0  0
   69.8350   49.5972   51.3732 O   0  0  0  0  0  0  0  0  0  0  0  0
   69.4416   46.8583   51.2292 O   0  0  0  0  0  0  0  0  0  0  0  0
   69.4971   47.4851   52.3122 C   0  0  0  0  0  0  0  0  0  0  0  0
   69.0278   46.9334   53.4893 O   0  0  0  0  0  0  0  0  0  0  0  0
 14 15  2  0  0  0
 15 16  1  0  0  0
 15 12  1  0  0  0
 12 13  2  0  0  0
 12 11  1  0  0  0
  1 11  1  0  0  0
  1  2  1  0  0  0
  1  6  1  0  0  0
  2  3  1  0  0  0
  3  4  2  0  0  0
  4  5  1  0  0  0
  5  8  1  0  0  0
  5  6  1  0  0  0
  8  9  2  0  0  0
  8 10  1  0  0  0
  6  7  2  0  0  0
M  END
> <minimizedAffinity>
-6.19617

$$$$
../data/cho_sim50/156542946.pdb


 13 13  0  0  0  0  0  0  0  0999 V2000
   69.2658   48.8967   55.7549 C   0  0  0  0  0  0  0  0  0  0  0  0
   69.6530   48.9149   54.3331 C   0  0  0  0  0  0  0  0  0  0  0  0
   69.3020   47.9882   53.4593 C   0  0  0  0  0  0  0  0  0  0  0  0
   68.4826   46.8525   53.8548 C   0  0  0  0  0  0  0  0  0  0  0  0
   68.1043   46.7785   55.1059 C   0  0  0  0  0  0  0  0  0  0  0  0
   68.4292   47.7410   56.1650 C   0  0  0  0  0  0  0  0  0  0  0  0
   69.0008   47.1032   57.2867 O   0  0  0  0  0  0  0  0  0  0  0  0
   69.7424   48.1055   52.0722 C   0  0  0  0  0  0  0  0  0  0  0  0
   69.9303   47.0896   51.3566 O   0  0  0  0  0  0  0  0  0  0  0  0
   69.9660   49.3510   51.5034 O   0  0  0  0  0  0  0  0  0  0  0  0
   68.6095   50.1489   56.0100 O   0  0  0  0  0  0  0  0  0  0  0  0
   66.9819   50.9477   57.5017 C   0  0  0  0  0  0  0  0  0  0  0  0
   68.1814   50.4073   57.3015 C   0  0  0  0  0  0  0  0  0  0  0  0
 12 13  2  0  0  0
 13 11  1  0  0  0
  1 11  1  0  0  0
  1  2  1  0  0  0
  1  6  1  0  0  0
  2  3  2  0  0  0
  3  8  1  0  0  0
  3  4  1  0  0  0
  8  9  2  0  0  0
  8 10  1  0  0  0
  4  5  2  0  0  0
  5  6  1  0  0  0
  6  7  1  0  0  0
M  END
> <minimizedAffinity>
-6.30886

$$$$
../data/cho_sim50/162821403.pdb


 16 16  0  0  0  0  0  0  0  0999 V2000
   69.9614   49.9076   54.1821 C   0  0  0  0  0  0  0  0  0  0  0  0
   69.0932   49.4399   55.3295 C   0  0  0  0  0  0  0  0  0  0  0  0
   69.2152   47.9576   55.4101 C   0  0  0  0  0  0  0  0  0  0  0  0
   69.0868   47.2448   54.3051 C   0  0  0  0  0  0  0  0  0  0  0  0
   68.8269   47.9390   53.0228 C   0  0  0  0  0  0  0  0  0  0  0  0
   69.7698   49.0816   52.9696 C   0  0  0  0  0  0  0  0  0  0  0  0
   70.3585   49.3127   51.9415 O   0  0  0  0  0  0  0  0  0  0  0  0
   68.9104   47.0670   51.8573 C   0  0  0  0  0  0  0  0  0  0  0  0
   70.0197   46.6184   51.4941 O   0  0  0  0  0  0  0  0  0  0  0  0
   67.7946   46.7177   51.1359 O   0  0  0  0  0  0  0  0  0  0  0  0
   71.3315   49.9142   54.6089 O   0  0  0  0  0  0  0  0  0  0  0  0
   71.9987   51.1019   54.8364 C   0  0  0  0  0  0  0  0  0  0  0  0
   71.3463   52.1300   55.0975 O   0  0  0  0  0  0  0  0  0  0  0  0
   74.0705   50.4743   53.8941 O   0  0  0  0  0  0  0  0  0  0  0  0
   73.4567   51.1313   54.7672 C   0  0  0  0  0  0  0  0  0  0  0  0
   74.2135   51.8760   55.6497 O   0  0  0  0  0  0  0  0  0  0  0  0
 14 15  2  0  0  0
 15 16  1  0  0  0
 15 12  1  0  0  0
 12 13  2  0  0  0
 12 11  1  0  0  0
  1 11  1  0  0  0
  1  2  1  0  0  0
  1  6  1  0  0  0
  2  3  1  0  0  0
  3  4  2  0  0  0
  4  5  1  0  0  0
  5  8  1  0  0  0
  5  6  1  0  0  0
  8  9  2  0  0  0
  8 10  1  0  0  0
  6  7  2  0  0  0
M  END
> <minimizedAffinity>
-6.62697

$$$$
../data/cho_sim50/162821403.pdb


 16 16  0  0  0  0  0  0  0  0999 V2000
   70.8332   50.1589   54.3159 C   0  0  0  0  0  0  0  0  0  0  0  0
   70.2907   49.4808   55.5471 C   0  0  0  0  0  0  0  0  0  0  0  0
   70.1379   50.5350   56.5898 C   0  0  0  0  0  0  0  0  0  0  0  0
   70.8573   51.6365   56.6400 C   0  0  0  0  0  0  0  0  0  0  0  0
   71.9236   51.9976   55.6760 C   0  0  0  0  0  0  0  0  0  0  0  0
   72.0434   50.9040   54.6963 C   0  0  0  0  0  0  0  0  0  0  0  0
   73.1096   50.6245   54.2162 O   0  0  0  0  0  0  0  0  0  0  0  0
   73.1945   52.3340   56.3361 C   0  0  0  0  0  0  0  0  0  0  0  0
   73.6044   51.6781   57.3211 O   0  0  0  0  0  0  0  0  0  0  0  0
   73.9672   53.3886   55.8805 O   0  0  0  0  0  0  0  0  0  0  0  0
   71.0369   49.2682   53.2421 O   0  0  0  0  0  0  0  0  0  0  0  0
   70.0789   48.9298   52.3179 C   0  0  0  0  0  0  0  0  0  0  0  0
   69.7863   49.8004   51.4635 O   0  0  0  0  0  0  0  0  0  0  0  0
   69.5836   46.8235   51.3393 O   0  0  0  0  0  0  0  0  0  0  0  0
   69.4011   47.6355   52.2820 C   0  0  0  0  0  0  0  0  0  0  0  0
   68.5283   47.2454   53.2862 O   0  0  0  0  0  0  0  0  0  0  0  0
 14 15  2  0  0  0
 15 16  1  0  0  0
 15 12  1  0  0  0
 12 13  2  0  0  0
 12 11  1  0  0  0
  1 11  1  0  0  0
  1  2  1  0  0  0
  1  6  1  0  0  0
  2  3  1  0  0  0
  3  4  2  0  0  0
  4  5  1  0  0  0
  5  8  1  0  0  0
  5  6  1  0  0  0
  8  9  2  0  0  0
  8 10  1  0  0  0
  6  7  2  0  0  0
M  END
> <minimizedAffinity>
-6.32694

$$$$
../data/cho_sim50/164132417.pdb


 17 17  0  0  0  0  0  0  0  0999 V2000
   70.6302   49.9129   54.3591 C   0  0  0  0  0  0  0  0  0  0  0  0
   69.9923   49.0999   55.3997 C   0  0  0  0  0  0  0  0  0  0  0  0
   69.2516   48.0310   55.2241 C   0  0  0  0  0  0  0  0  0  0  0  0
   69.0495   47.6188   53.8409 C   0  0  0  0  0  0  0  0  0  0  0  0
   67.8675   45.9045   53.4853 I   0  0  0  0  0  0  0  0  0  0  0  0
   69.5719   48.2692   52.8316 C   0  0  0  0  0  0  0  0  0  0  0  0
   70.4075   49.4694   52.9755 C   0  0  0  0  0  0  0  0  0  0  0  0
   69.8004   50.4701   52.1880 O   0  0  0  0  0  0  0  0  0  0  0  0
   68.6575   47.2849   56.3243 C   0  0  0  0  0  0  0  0  0  0  0  0
   67.5599   47.6380   56.8296 O   0  0  0  0  0  0  0  0  0  0  0  0
   69.2748   46.1663   56.8521 O   0  0  0  0  0  0  0  0  0  0  0  0
   72.0506   50.0017   54.6016 O   0  0  0  0  0  0  0  0  0  0  0  0
   71.9824   52.2692   55.0735 C   0  0  0  0  0  0  0  0  0  0  0  0
   72.6788   51.1869   54.8724 C   0  0  0  0  0  0  0  0  0  0  0  0
   74.1348   51.2475   54.9392 C   0  0  0  0  0  0  0  0  0  0  0  0
   74.7498   52.3263   55.1424 O   0  0  0  0  0  0  0  0  0  0  0  0
   74.9287   50.1089   54.7797 O   0  0  0  0  0  0  0  0  0  0  0  0
 13 14  2  0  0  0
 14 12  1  0  0  0
 14 15  1  0  0  0
  1 12  1  0  0  0
  1  2  1  0  0  0
  1  7  1  0  0  0
  2  3  2  0  0  0
  3  9  1  0  0  0
  3  4  1  0  0  0
  9 10  2  0  0  0
  9 11  1  0  0  0
  4  5  1  0  0  0
  4  6  2  0  0  0
  6  7  1  0  0  0
  7  8  1  0  0  0
 15 16  2  0  0  0
 15 17  1  0  0  0
M  END
> <minimizedAffinity>
-6.54807

$$$$
../data/cho_sim50/164132417.pdb


 17 17  0  0  0  0  0  0  0  0999 V2000
   70.7875   49.7894   55.4370 C   0  0  0  0  0  0  0  0  0  0  0  0
   70.6992   49.6325   53.9801 C   0  0  0  0  0  0  0  0  0  0  0  0
   69.9482   48.7034   53.4306 C   0  0  0  0  0  0  0  0  0  0  0  0
   69.1958   47.7520   54.2113 C   0  0  0  0  0  0  0  0  0  0  0  0
   67.9977   46.2846   53.2452 I   0  0  0  0  0  0  0  0  0  0  0  0
   69.2586   47.8025   55.5248 C   0  0  0  0  0  0  0  0  0  0  0  0
   70.0698   48.7900   56.2592 C   0  0  0  0  0  0  0  0  0  0  0  0
   69.2243   49.4776   57.1641 O   0  0  0  0  0  0  0  0  0  0  0  0
   69.8906   48.5894   51.9728 C   0  0  0  0  0  0  0  0  0  0  0  0
   69.6216   49.5895   51.2746 O   0  0  0  0  0  0  0  0  0  0  0  0
   70.1290   47.3818   51.3412 O   0  0  0  0  0  0  0  0  0  0  0  0
   72.1153   49.9192   55.8795 O   0  0  0  0  0  0  0  0  0  0  0  0
   72.6539   52.0050   56.8702 C   0  0  0  0  0  0  0  0  0  0  0  0
   72.8579   51.0576   55.9622 C   0  0  0  0  0  0  0  0  0  0  0  0
   73.9468   51.2246   54.9749 C   0  0  0  0  0  0  0  0  0  0  0  0
   74.7983   52.1185   55.1631 O   0  0  0  0  0  0  0  0  0  0  0  0
   74.0531   50.4233   53.8508 O   0  0  0  0  0  0  0  0  0  0  0  0
 13 14  2  0  0  0
 14 12  1  0  0  0
 14 15  1  0  0  0
  1 12  1  0  0  0
  1  2  1  0  0  0
  1  7  1  0  0  0
  2  3  2  0  0  0
  3  9  1  0  0  0
  3  4  1  0  0  0
  9 10  2  0  0  0
  9 11  1  0  0  0
  4  5  1  0  0  0
  4  6  2  0  0  0
  6  7  1  0  0  0
  7  8  1  0  0  0
 15 16  2  0  0  0
 15 17  1  0  0  0
M  END
> <minimizedAffinity>
-6.99349

$$$$
../data/cho_sim50/164132417.pdb


 17 17  0  0  0  0  0  0  0  0999 V2000
   70.7515   49.9707   55.4537 C   0  0  0  0  0  0  0  0  0  0  0  0
   70.6340   49.7681   53.9902 C   0  0  0  0  0  0  0  0  0  0  0  0
   69.9381   48.8042   53.4355 C   0  0  0  0  0  0  0  0  0  0  0  0
   69.2213   47.8519   54.2552 C   0  0  0  0  0  0  0  0  0  0  0  0
   68.0855   46.2793   53.4164 I   0  0  0  0  0  0  0  0  0  0  0  0
   69.2565   47.9401   55.5588 C   0  0  0  0  0  0  0  0  0  0  0  0
   70.0038   48.9801   56.2766 C   0  0  0  0  0  0  0  0  0  0  0  0
   69.1520   49.7242   57.1216 O   0  0  0  0  0  0  0  0  0  0  0  0
   69.8881   48.6912   51.9822 C   0  0  0  0  0  0  0  0  0  0  0  0
   69.6144   49.6828   51.2569 O   0  0  0  0  0  0  0  0  0  0  0  0
   70.1423   47.4850   51.3419 O   0  0  0  0  0  0  0  0  0  0  0  0
   72.1339   49.8562   55.7476 O   0  0  0  0  0  0  0  0  0  0  0  0
   72.9164   51.6655   56.9995 C   0  0  0  0  0  0  0  0  0  0  0  0
   72.9965   50.9009   55.9244 C   0  0  0  0  0  0  0  0  0  0  0  0
   73.9995   51.1606   54.9200 C   0  0  0  0  0  0  0  0  0  0  0  0
   74.0254   50.4828   53.8768 O   0  0  0  0  0  0  0  0  0  0  0  0
   74.9219   52.1467   55.1061 O   0  0  0  0  0  0  0  0  0  0  0  0
 13 14  2  0  0  0
 14 12  1  0  0  0
 14 15  1  0  0  0
  1 12  1  0  0  0
  1  2  1  0  0  0
  1  7  1  0  0  0
  2  3  2  0  0  0
  3  9  1  0  0  0
  3  4  1  0  0  0
  9 10  2  0  0  0
  9 11  1  0  0  0
  4  5  1  0  0  0
  4  6  2  0  0  0
  6  7  1  0  0  0
  7  8  1  0  0  0
 15 16  2  0  0  0
 15 17  1  0  0  0
M  END
> <minimizedAffinity>
-7.05277

$$$$
../data/cho_sim50/164132417.pdb


 17 17  0  0  0  0  0  0  0  0999 V2000
   70.6961   49.8003   55.5172 C   0  0  0  0  0  0  0  0  0  0  0  0
   70.6171   49.6526   54.0648 C   0  0  0  0  0  0  0  0  0  0  0  0
   69.9248   48.7345   53.4229 C   0  0  0  0  0  0  0  0  0  0  0  0
   69.1771   47.7848   54.2348 C   0  0  0  0  0  0  0  0  0  0  0  0
   68.0558   46.2998   53.2426 I   0  0  0  0  0  0  0  0  0  0  0  0
   69.1819   47.8268   55.5464 C   0  0  0  0  0  0  0  0  0  0  0  0
   69.9320   48.8217   56.3013 C   0  0  0  0  0  0  0  0  0  0  0  0
   69.0938   49.4555   57.2628 O   0  0  0  0  0  0  0  0  0  0  0  0
   69.8916   48.6466   51.9699 C   0  0  0  0  0  0  0  0  0  0  0  0
   69.6087   49.6715   51.3020 O   0  0  0  0  0  0  0  0  0  0  0  0
   70.1648   47.4627   51.3048 O   0  0  0  0  0  0  0  0  0  0  0  0
   72.0974   49.7931   55.8381 O   0  0  0  0  0  0  0  0  0  0  0  0
   72.6686   51.8056   56.8505 C   0  0  0  0  0  0  0  0  0  0  0  0
   72.8624   50.9205   55.8948 C   0  0  0  0  0  0  0  0  0  0  0  0
   73.9234   51.1810   54.8965 C   0  0  0  0  0  0  0  0  0  0  0  0
   74.0039   50.4835   53.8556 O   0  0  0  0  0  0  0  0  0  0  0  0
   74.8485   52.1899   55.0812 O   0  0  0  0  0  0  0  0  0  0  0  0
 13 14  2  0  0  0
 14 12  1  0  0  0
 14 15  1  0  0  0
  1 12  1  0  0  0
  1  2  1  0  0  0
  1  7  1  0  0  0
  2  3  2  0  0  0
  3  9  1  0  0  0
  3  4  1  0  0  0
  9 10  2  0  0  0
  9 11  1  0  0  0
  4  5  1  0  0  0
  4  6  2  0  0  0
  6  7  1  0  0  0
  7  8  1  0  0  0
 15 16  2  0  0  0
 15 17  1  0  0  0
M  END
> <minimizedAffinity>
-7.03488

$$$$
../data/cho_sim50/164132417.pdb


 17 17  0  0  0  0  0  0  0  0999 V2000
   69.6290   48.6834   54.4674 C   0  0  0  0  0  0  0  0  0  0  0  0
   69.0509   49.1739   55.7084 C   0  0  0  0  0  0  0  0  0  0  0  0
   69.2155   50.3848   56.2030 C   0  0  0  0  0  0  0  0  0  0  0  0
   70.0490   51.3561   55.4793 C   0  0  0  0  0  0  0  0  0  0  0  0
   70.3175   53.3114   56.2720 I   0  0  0  0  0  0  0  0  0  0  0  0
   70.5998   50.9848   54.3667 C   0  0  0  0  0  0  0  0  0  0  0  0
   70.4728   49.6743   53.7506 C   0  0  0  0  0  0  0  0  0  0  0  0
   70.0077   49.7850   52.4100 O   0  0  0  0  0  0  0  0  0  0  0  0
   68.5836   50.7681   57.4616 C   0  0  0  0  0  0  0  0  0  0  0  0
   69.1922   50.6106   58.5471 O   0  0  0  0  0  0  0  0  0  0  0  0
   67.3261   51.3026   57.4890 O   0  0  0  0  0  0  0  0  0  0  0  0
   68.5558   48.2992   53.5725 O   0  0  0  0  0  0  0  0  0  0  0  0
   68.1293   46.0483   54.1310 C   0  0  0  0  0  0  0  0  0  0  0  0
   68.3425   46.9807   53.2188 C   0  0  0  0  0  0  0  0  0  0  0  0
   68.3563   46.6311   51.8091 C   0  0  0  0  0  0  0  0  0  0  0  0
   69.3867   46.9085   51.1390 O   0  0  0  0  0  0  0  0  0  0  0  0
   67.2622   46.0030   51.1991 O   0  0  0  0  0  0  0  0  0  0  0  0
 13 14  2  0  0  0
 14 12  1  0  0  0
 14 15  1  0  0  0
  1 12  1  0  0  0
  1  2  1  0  0  0
  1  7  1  0  0  0
  2  3  2  0  0  0
  3  9  1  0  0  0
  3  4  1  0  0  0
  9 10  2  0  0  0
  9 11  1  0  0  0
  4  5  1  0  0  0
  4  6  2  0  0  0
  6  7  1  0  0  0
  7  8  1  0  0  0
 15 16  2  0  0  0
 15 17  1  0  0  0
M  END
> <minimizedAffinity>
-6.37890

$$$$
