../data/sim100/CHEMBL677.pdb
     RDKit          3D

 13 13  0  0  1  0  0  0  0  0999 V2000
   -2.0300   -1.1740    0.8060 C   0  0  0  0  0  0  0  0  0  0  0  0
   -2.1060    0.2230    0.2500 C   0  0  2  0  0  0  0  0  0  0  0  0
   -3.4410    0.4110   -0.2870 N   0  0  0  0  0  0  0  0  0  0  0  0
   -1.1290    0.4550   -0.8750 C   0  0  2  0  0  0  0  0  0  0  0  0
   -1.3910   -0.4660   -1.8870 O   0  0  0  0  0  0  0  0  0  0  0  0
    0.2690    0.4560   -0.4500 C   0  0  0  0  0  0  0  0  0  0  0  0
    0.9480    1.6410   -0.2620 C   0  0  0  0  0  0  0  0  0  0  0  0
    2.2560    1.7020    0.1350 C   0  0  0  0  0  0  0  0  0  0  0  0
    2.9630    0.5400    0.3690 C   0  0  0  0  0  0  0  0  0  0  0  0
    4.2830    0.6130    0.7690 O   0  0  0  0  0  0  0  0  0  0  0  0
    2.3080   -0.6720    0.1890 C   0  0  0  0  0  0  0  0  0  0  0  0
    2.9700   -1.8800    0.4100 O   0  0  0  0  0  0  0  0  0  0  0  0
    0.9780   -0.7000   -0.2150 C   0  0  0  0  0  0  0  0  0  0  0  0
  2  1  1  6
  2  3  1  0
  2  4  1  0
  4  5  1  6
  4  6  1  0
  6  7  2  0
  6 13  1  0
  7  8  1  0
  8  9  2  0
  9 10  1  0
  9 11  1  0
 11 12  1  0
 11 13  2  0
M  CHG  1   3   1
M  END
$$$$
../data/sim100/CHEMBL155014.pdb
     RDKit          3D

 22 23  0  0  1  0  0  0  0  0999 V2000
   -0.9990    2.4050    1.4420 C   0  0  0  0  0  0  0  0  0  0  0  0
   -0.1020    1.1960    1.3330 C   0  0  0  0  0  0  0  0  0  0  0  0
   -0.4860    0.4710    0.0420 C   0  0  2  0  0  0  0  0  0  0  0  0
   -1.8950    0.0920    0.1620 C   0  0  0  0  0  0  0  0  0  0  0  0
   -2.2980   -0.7440    1.1780 C   0  0  0  0  0  0  0  0  0  0  0  0
   -3.6370   -1.0930    1.2780 C   0  0  0  0  0  0  0  0  0  0  0  0
   -4.5700   -0.6270    0.3930 C   0  0  0  0  0  0  0  0  0  0  0  0
   -5.9350   -0.9940    0.5100 N   0  0  0  0  0  0  0  0  0  0  0  0
   -4.1760    0.2210   -0.6400 C   0  0  0  0  0  0  0  0  0  0  0  0
   -5.1400    0.6810   -1.5260 O   0  0  0  0  0  0  0  0  0  0  0  0
   -2.8430    0.5570   -0.7250 C   0  0  0  0  0  0  0  0  0  0  0  0
    0.4400   -0.7140   -0.0730 C   0  0  1  0  0  0  0  0  0  0  0  0
    0.1650   -1.5260   -1.3200 C   0  0  0  0  0  0  0  0  0  0  0  0
    1.1340   -2.6840   -1.3490 C   0  0  0  0  0  0  0  0  0  0  0  0
    1.8290   -0.1880   -0.0770 C   0  0  0  0  0  0  0  0  0  0  0  0
    2.2320    0.6650   -1.0800 C   0  0  0  0  0  0  0  0  0  0  0  0
    3.5060    1.1810   -1.1320 C   0  0  0  0  0  0  0  0  0  0  0  0
    4.3770    0.8080   -0.1310 C   0  0  0  0  0  0  0  0  0  0  0  0
    5.7220    1.3090   -0.1220 N   0  0  0  0  0  0  0  0  0  0  0  0
    4.0290   -0.0420    0.8990 C   0  0  0  0  0  0  0  0  0  0  0  0
    4.9160   -0.4100    1.9010 O   0  0  0  0  0  0  0  0  0  0  0  0
    2.7490   -0.5380    0.9180 C   0  0  0  0  0  0  0  0  0  0  0  0
  1  2  1  0
  3  2  1  1
  3  4  1  0
  3 12  1  0
  4  5  2  0
  4 11  1  0
  5  6  1  0
  6  7  2  0
  7  8  1  0
  7  9  1  0
  9 10  1  0
  9 11  2  0
 12 13  1  6
 12 15  1  0
 13 14  1  0
 15 16  2  0
 15 22  1  0
 16 17  1  0
 17 18  2  0
 18 19  1  0
 18 20  1  0
 20 21  1  0
 20 22  2  0
M  END
>  <MODEL>  (2) 
       1

$$$$
../data/sim100/CHEMBL155014.pdb
     RDKit          3D

 22 23  0  0  1  0  0  0  0  0999 V2000
   -0.7040   -3.0660    2.3980 C   0  0  0  0  0  0  0  0  0  0  0  0
   -1.4110   -2.0180    1.6150 C   0  0  0  0  0  0  0  0  0  0  0  0
   -0.5490   -1.2230    0.6820 C   0  0  1  0  0  0  0  0  0  0  0  0
   -1.4390   -0.2410   -0.0060 C   0  0  0  0  0  0  0  0  0  0  0  0
   -2.1450    0.7040    0.6870 C   0  0  0  0  0  0  0  0  0  0  0  0
   -2.9490    1.5830    0.0000 C   0  0  0  0  0  0  0  0  0  0  0  0
   -3.0480    1.5170   -1.3730 C   0  0  0  0  0  0  0  0  0  0  0  0
   -3.8850    2.4310   -2.0860 N   0  0  0  0  0  0  0  0  0  0  0  0
   -2.3540    0.5790   -2.1070 C   0  0  0  0  0  0  0  0  0  0  0  0
   -2.4370    0.4910   -3.4970 O   0  0  0  0  0  0  0  0  0  0  0  0
   -1.5590   -0.2810   -1.3680 C   0  0  0  0  0  0  0  0  0  0  0  0
    0.6920   -0.6270    1.2010 C   0  0  2  0  0  0  0  0  0  0  0  0
    0.6800    0.3660    2.2780 C   0  0  0  0  0  0  0  0  0  0  0  0
    0.1160   -0.0750    3.5940 C   0  0  0  0  0  0  0  0  0  0  0  0
    1.5620   -0.1090    0.0780 C   0  0  0  0  0  0  0  0  0  0  0  0
    1.2690    1.0620   -0.5900 C   0  0  0  0  0  0  0  0  0  0  0  0
    2.0580    1.5340   -1.6180 C   0  0  0  0  0  0  0  0  0  0  0  0
    3.1820    0.8480   -2.0230 C   0  0  0  0  0  0  0  0  0  0  0  0
    4.0040    1.3440   -3.0970 N   0  0  0  0  0  0  0  0  0  0  0  0
    3.4900   -0.3220   -1.3690 C   0  0  0  0  0  0  0  0  0  0  0  0
    4.6130   -1.0510   -1.7400 O   0  0  0  0  0  0  0  0  0  0  0  0
    2.6900   -0.7800   -0.3430 C   0  0  0  0  0  0  0  0  0  0  0  0
  1  2  1  0
  3  2  1  1
  3  4  1  0
  3 12  1  0
  4  5  2  0
  4 11  1  0
  5  6  1  0
  6  7  2  0
  7  8  1  0
  7  9  1  0
  9 10  1  0
  9 11  2  0
 12 13  1  1
 12 15  1  0
 13 14  1  0
 15 16  2  0
 15 22  1  0
 16 17  1  0
 17 18  2  0
 18 19  1  0
 18 20  1  0
 20 21  1  0
 20 22  2  0
M  END
>  <MODEL>  (3) 
       2

$$$$
../data/sim100/CHEMBL155014.pdb
     RDKit          3D

 22 23  0  0  1  0  0  0  0  0999 V2000
    1.7120    1.4430   -3.1610 C   0  0  0  0  0  0  0  0  0  0  0  0
    0.3100    1.2740   -2.5790 C   0  0  0  0  0  0  0  0  0  0  0  0
    0.3620    1.0390   -1.0900 C   0  0  2  0  0  0  0  0  0  0  0  0
    1.1660   -0.1980   -0.9040 C   0  0  0  0  0  0  0  0  0  0  0  0
    2.3810   -0.1180   -0.2500 C   0  0  0  0  0  0  0  0  0  0  0  0
    3.1780   -1.2290   -0.0450 C   0  0  0  0  0  0  0  0  0  0  0  0
    2.7450   -2.4530   -0.5080 C   0  0  0  0  0  0  0  0  0  0  0  0
    3.5760   -3.6030   -0.2930 N   0  0  0  0  0  0  0  0  0  0  0  0
    1.5360   -2.5700   -1.1660 C   0  0  0  0  0  0  0  0  0  0  0  0
    1.1040   -3.8110   -1.6320 O   0  0  0  0  0  0  0  0  0  0  0  0
    0.7680   -1.4260   -1.3490 C   0  0  0  0  0  0  0  0  0  0  0  0
   -0.9860    0.9750   -0.5300 C   0  0  2  0  0  0  0  0  0  0  0  0
   -1.7280    2.2710   -0.7640 C   0  0  0  0  0  0  0  0  0  0  0  0
   -3.1380    2.1860   -0.1580 C   0  0  0  0  0  0  0  0  0  0  0  0
   -1.1190    0.6620    0.8880 C   0  0  0  0  0  0  0  0  0  0  0  0
   -0.5030    1.4240    1.8510 C   0  0  0  0  0  0  0  0  0  0  0  0
   -0.6460    1.1080    3.1830 C   0  0  0  0  0  0  0  0  0  0  0  0
   -1.4100    0.0200    3.5930 C   0  0  0  0  0  0  0  0  0  0  0  0
   -1.5600   -0.3090    4.9620 N   0  0  0  0  0  0  0  0  0  0  0  0
   -2.0270   -0.7410    2.6130 C   0  0  0  0  0  0  0  0  0  0  0  0
   -2.7970   -1.8320    2.9630 O   0  0  0  0  0  0  0  0  0  0  0  0
   -1.8830   -0.4230    1.2670 C   0  0  0  0  0  0  0  0  0  0  0  0
  1  2  1  0
  3  2  1  6
  3  4  1  0
  3 12  1  0
  4  5  2  0
  4 11  1  0
  5  6  1  0
  6  7  2  0
  7  8  1  0
  7  9  1  0
  9 10  1  0
  9 11  2  0
 12 13  1  1
 12 15  1  0
 13 14  1  0
 15 16  2  0
 15 22  1  0
 16 17  1  0
 17 18  2  0
 18 19  1  0
 18 20  1  0
 20 21  1  0
 20 22  2  0
M  END
>  <MODEL>  (4) 
       3

$$$$
../data/sim100/CHEMBL2062273.pdb
     RDKit          3D

 22 21  0  0  1  0  0  0  0  0999 V2000
    3.8010   -0.1050   -0.3460 N   0  0  0  0  0  0  0  0  0  0  0  0
    2.5010   -0.4650    0.2430 C   0  0  0  0  0  0  0  0  0  0  0  0
    1.4620    0.2920   -0.5250 C   0  0  1  0  0  0  0  0  0  0  0  0
    1.5360   -0.0900   -1.8650 O   0  0  0  0  0  0  0  0  0  0  0  0
    0.0920    0.0900   -0.0490 C   0  0  0  0  0  0  0  0  0  0  0  0
   -0.2430   -0.4970    1.1560 C   0  0  0  0  0  0  0  0  0  0  0  0
   -1.5400   -0.6630    1.5560 C   0  0  0  0  0  0  0  0  0  0  0  0
   -2.6080   -0.2390    0.7510 C   0  0  0  0  0  0  0  0  0  0  0  0
   -3.9050   -0.4350    1.2110 O   0  0  0  0  0  0  0  0  0  0  0  0
   -2.2880    0.3470   -0.4520 C   0  0  0  0  0  0  0  0  0  0  0  0
   -3.3010    0.7790   -1.2760 O   0  0  0  0  0  0  0  0  0  0  0  0
   -0.9500    0.5070   -0.8420 C   0  0  0  0  0  0  0  0  0  0  0  0
    1.9880   -2.0530    0.3950 O   0  0  0  0  0  0  0  0  0  0  0  0
    1.6310   -0.8540    0.3120 C   0  0  0  0  0  0  0  0  0  0  0  0
    2.4880    0.1100    0.8070 O   0  0  0  0  0  0  0  0  0  0  0  0
    0.3170   -0.5710   -0.3110 C   0  0  1  0  0  0  0  0  0  0  0  0
   -0.3040   -1.7320   -0.7060 O   0  0  0  0  0  0  0  0  0  0  0  0
   -0.5140    0.2430    0.6570 C   0  0  1  0  0  0  0  0  0  0  0  0
    0.1990    1.3890    0.9930 O   0  0  0  0  0  0  0  0  0  0  0  0
   -1.8070    0.6560    0.0760 C   0  0  0  0  0  0  0  0  0  0  0  0
   -2.6150   -0.2270   -0.3000 O   0  0  0  0  0  0  0  0  0  0  0  0
   -2.1920    1.9750   -0.0840 O   0  0  0  0  0  0  0  0  0  0  0  0
  1  2  1  0
  2  3  1  0
  3  4  1  6
  3  5  1  0
  5  6  2  0
  5 12  1  0
  6  7  1  0
  7  8  2  0
  8  9  1  0
  8 10  1  0
 10 11  1  0
 10 12  2  0
 13 14  2  0
 14 15  1  0
 14 16  1  0
 16 17  1  1
 16 18  1  0
 18 19  1  6
 18 20  1  0
 20 21  2  0
 20 22  1  0
M  CHG  1   1   1
M  END
>  <MODEL>  (5) 
       1

$$$$
../data/sim100/CHEMBL2062273.pdb
     RDKit          3D

 22 21  0  0  1  0  0  0  0  0999 V2000
   -3.7560   -0.1950   -0.2230 N   0  0  0  0  0  0  0  0  0  0  0  0
   -2.4630   -0.0500    0.4610 C   0  0  0  0  0  0  0  0  0  0  0  0
   -1.4470   -0.0110   -0.6410 C   0  0  2  0  0  0  0  0  0  0  0  0
   -1.5460   -1.2080   -1.3470 O   0  0  0  0  0  0  0  0  0  0  0  0
   -0.0570    0.1220   -0.1710 C   0  0  0  0  0  0  0  0  0  0  0  0
    0.2960    0.5080    1.0930 C   0  0  0  0  0  0  0  0  0  0  0  0
    1.6060    0.6000    1.4300 C   0  0  0  0  0  0  0  0  0  0  0  0
    2.6150    0.3130    0.5210 C   0  0  0  0  0  0  0  0  0  0  0  0
    3.9350    0.4240    0.9180 O   0  0  0  0  0  0  0  0  0  0  0  0
    2.2970   -0.0780   -0.7600 C   0  0  0  0  0  0  0  0  0  0  0  0
    3.2350   -0.3830   -1.7320 O   0  0  0  0  0  0  0  0  0  0  0  0
    0.9340   -0.1660   -1.0830 C   0  0  0  0  0  0  0  0  0  0  0  0
   -2.7920   -0.1480    0.2940 O   0  0  0  0  0  0  0  0  0  0  0  0
   -1.6510    0.2830    0.6740 C   0  0  0  0  0  0  0  0  0  0  0  0
   -1.5960    1.6470    0.9170 O   0  0  0  0  0  0  0  0  0  0  0  0
   -0.5480   -0.6610    0.8140 C   0  0  1  0  0  0  0  0  0  0  0  0
   -1.0560   -1.9570    0.5370 O   0  0  0  0  0  0  0  0  0  0  0  0
    0.5820   -0.4690   -0.1870 C   0  0  2  0  0  0  0  0  0  0  0  0
    1.4920   -1.5270    0.0920 O   0  0  0  0  0  0  0  0  0  0  0  0
    1.2630    0.8220   -0.0850 C   0  0  0  0  0  0  0  0  0  0  0  0
    0.6480    1.8800   -0.3450 O   0  0  0  0  0  0  0  0  0  0  0  0
    2.5990    0.9640    0.2950 O   0  0  0  0  0  0  0  0  0  0  0  0
  1  2  1  0
  2  3  1  0
  3  4  1  1
  3  5  1  0
  5  6  2  0
  5 12  1  0
  6  7  1  0
  7  8  2  0
  8  9  1  0
  8 10  1  0
 10 11  1  0
 10 12  2  0
 13 14  2  0
 14 15  1  0
 14 16  1  0
 16 17  1  6
 16 18  1  0
 18 19  1  1
 18 20  1  0
 20 21  2  0
 20 22  1  0
M  CHG  1   1   1
M  END
>  <MODEL>  (6) 
       2

$$$$
../data/sim100/CHEMBL2062273.pdb
     RDKit          3D

 22 21  0  0  1  0  0  0  0  0999 V2000
    3.5260    0.9400    0.4920 N   0  0  0  0  0  0  0  0  0  0  0  0
    2.1460    0.6610    0.8020 C   0  0  0  0  0  0  0  0  0  0  0  0
    1.5060    0.0520   -0.4180 C   0  0  1  0  0  0  0  0  0  0  0  0
    2.1470   -1.1130   -0.7640 O   0  0  0  0  0  0  0  0  0  0  0  0
    0.0340   -0.1340   -0.2390 C   0  0  0  0  0  0  0  0  0  0  0  0
   -0.4820   -1.2050    0.4650 C   0  0  0  0  0  0  0  0  0  0  0  0
   -1.8450   -1.3810    0.6320 C   0  0  0  0  0  0  0  0  0  0  0  0
   -2.7440   -0.4830    0.0950 C   0  0  0  0  0  0  0  0  0  0  0  0
   -4.1060   -0.6060    0.2280 O   0  0  0  0  0  0  0  0  0  0  0  0
   -2.2420    0.5910   -0.6120 C   0  0  0  0  0  0  0  0  0  0  0  0
   -3.0830    1.5430   -1.1860 O   0  0  0  0  0  0  0  0  0  0  0  0
   -0.8810    0.7530   -0.7700 C   0  0  0  0  0  0  0  0  0  0  0  0
    1.4410    1.5890    0.0880 O   0  0  0  0  0  0  0  0  0  0  0  0
    1.5110    0.3690    0.3860 C   0  0  0  0  0  0  0  0  0  0  0  0
    2.7060   -0.2780    0.1060 O   0  0  0  0  0  0  0  0  0  0  0  0
    0.4260   -0.3780    0.9950 C   0  0  2  0  0  0  0  0  0  0  0  0
    0.8060   -1.6970    1.2020 O   0  0  0  0  0  0  0  0  0  0  0  0
   -0.8400   -0.4080    0.1650 C   0  0  2  0  0  0  0  0  0  0  0  0
   -0.5960   -1.0410   -1.0510 O   0  0  0  0  0  0  0  0  0  0  0  0
   -1.3780    0.9350   -0.1100 C   0  0  0  0  0  0  0  0  0  0  0  0
   -1.6780    1.7040    0.8310 O   0  0  0  0  0  0  0  0  0  0  0  0
   -1.5730    1.4020   -1.3910 O   0  0  0  0  0  0  0  0  0  0  0  0
  1  2  1  0
  2  3  1  0
  3  4  1  1
  3  5  1  0
  5  6  2  0
  5 12  1  0
  6  7  1  0
  7  8  2  0
  8  9  1  0
  8 10  1  0
 10 11  1  0
 10 12  2  0
 13 14  2  0
 14 15  1  0
 14 16  1  0
 16 17  1  6
 16 18  1  0
 18 19  1  6
 18 20  1  0
 20 21  2  0
 20 22  1  0
M  CHG  1   1   1
M  END
>  <MODEL>  (7) 
       3

$$$$
../data/sim100/CHEMBL288787.pdb
     RDKit          3D

 11 11  0  0  1  0  0  0  0  0999 V2000
    2.7600    0.9660   -0.1050 N   0  0  0  0  0  0  0  0  0  0  0  0
    2.1280   -0.3260   -0.2980 C   0  0  1  0  0  0  0  0  0  0  0  0
    2.5400   -1.1230    0.7660 O   0  0  0  0  0  0  0  0  0  0  0  0
    0.6510   -0.2270   -0.2440 C   0  0  0  0  0  0  0  0  0  0  0  0
   -0.0510   -1.1580    0.4750 C   0  0  0  0  0  0  0  0  0  0  0  0
   -1.4230   -1.1100    0.5570 C   0  0  0  0  0  0  0  0  0  0  0  0
   -2.1250   -0.1170   -0.0870 C   0  0  0  0  0  0  0  0  0  0  0  0
   -3.5300   -0.0360   -0.0260 O   0  0  0  0  0  0  0  0  0  0  0  0
   -1.4270    0.8280   -0.8160 C   0  0  0  0  0  0  0  0  0  0  0  0
   -2.1240    1.8550   -1.4840 O   0  0  0  0  0  0  0  0  0  0  0  0
   -0.0530    0.7690   -0.8890 C   0  0  0  0  0  0  0  0  0  0  0  0
  2  1  1  1
  2  3  1  0
  2  4  1  0
  4  5  2  0
  4 11  1  0
  5  6  1  0
  6  7  2  0
  7  8  1  0
  7  9  1  0
  9 10  1  0
  9 11  2  0
M  CHG  1   1   1
M  END
$$$$
../data/sim100/CHEMBL432.pdb
     RDKit          3D

 12 12  0  0  1  0  0  0  0  0999 V2000
   -2.2520    0.0010   -1.4930 N   0  0  0  0  0  0  0  0  0  0  0  0
   -2.4680   -0.4750   -0.1420 C   0  0  0  0  0  0  0  0  0  0  0  0
   -1.5720    0.2550    0.8380 C   0  0  1  0  0  0  0  0  0  0  0  0
   -1.8350   -0.2550    2.1150 O   0  0  0  0  0  0  0  0  0  0  0  0
   -0.1320    0.1210    0.4790 C   0  0  0  0  0  0  0  0  0  0  0  0
    0.5330   -1.0620    0.7270 C   0  0  0  0  0  0  0  0  0  0  0  0
    1.8690   -1.1980    0.3980 C   0  0  0  0  0  0  0  0  0  0  0  0
    2.5970   -0.1810   -0.1840 C   0  0  0  0  0  0  0  0  0  0  0  0
    3.9490   -0.3230   -0.5150 O   0  0  0  0  0  0  0  0  0  0  0  0
    1.9280    1.0000   -0.4300 C   0  0  0  0  0  0  0  0  0  0  0  0
    2.6400    2.0450   -1.0180 O   0  0  0  0  0  0  0  0  0  0  0  0
    0.5940    1.1400   -0.1030 C   0  0  0  0  0  0  0  0  0  0  0  0
  1  2  1  0
  2  3  1  0
  3  4  1  1
  3  5  1  0
  5  6  2  0
  5 12  1  0
  6  7  1  0
  7  8  2  0
  8  9  1  0
  8 10  1  0
 10 11  1  0
 10 12  2  0
M  CHG  1   1   1
M  END
>  <MODEL>  (9) 
       1

$$$$
../data/sim100/CHEMBL432.pdb
     RDKit          3D

 12 12  0  0  1  0  0  0  0  0999 V2000
   -2.5530   -0.4190    1.1740 N   0  0  0  0  0  0  0  0  0  0  0  0
   -2.5100    0.2260   -0.1060 C   0  0  0  0  0  0  0  0  0  0  0  0
   -1.4620   -0.3640   -1.0270 C   0  0  1  0  0  0  0  0  0  0  0  0
   -1.5230    0.3440   -2.2240 O   0  0  0  0  0  0  0  0  0  0  0  0
   -0.1100   -0.2930   -0.4640 C   0  0  0  0  0  0  0  0  0  0  0  0
    0.5300   -1.4120    0.0440 C   0  0  0  0  0  0  0  0  0  0  0  0
    1.8020   -1.3330    0.5700 C   0  0  0  0  0  0  0  0  0  0  0  0
    2.4770   -0.1380    0.6080 C   0  0  0  0  0  0  0  0  0  0  0  0
    3.7580   -0.0250    1.1310 O   0  0  0  0  0  0  0  0  0  0  0  0
    1.8620    1.0060    0.1050 C   0  0  0  0  0  0  0  0  0  0  0  0
    2.5670    2.2010    0.1560 O   0  0  0  0  0  0  0  0  0  0  0  0
    0.5920    0.9020   -0.4150 C   0  0  0  0  0  0  0  0  0  0  0  0
  1  2  1  0
  2  3  1  0
  3  4  1  6
  3  5  1  0
  5  6  2  0
  5 12  1  0
  6  7  1  0
  7  8  2  0
  8  9  1  0
  8 10  1  0
 10 11  1  0
 10 12  2  0
M  CHG  1   1   1
M  END
>  <MODEL>  (10) 
       2

$$$$
../data/sim100/CHEMBL2062274.pdb
     RDKit          3D

 32 30  0  0  1  0  0  0  0  0999 V2000
   -3.6970    0.4140    0.5310 N   0  0  0  0  0  0  0  0  0  0  0  0
   -2.3020    0.2380    0.8280 C   0  0  0  0  0  0  0  0  0  0  0  0
   -1.4790   -0.0090   -0.4150 C   0  0  1  0  0  0  0  0  0  0  0  0
   -1.6260    1.1010   -1.2680 O   0  0  0  0  0  0  0  0  0  0  0  0
   -0.0440   -0.1830   -0.1060 C   0  0  0  0  0  0  0  0  0  0  0  0
    0.4120   -0.4230    1.1700 C   0  0  0  0  0  0  0  0  0  0  0  0
    1.7700   -0.5810    1.4230 C   0  0  0  0  0  0  0  0  0  0  0  0
    2.6290   -0.4870    0.3470 C   0  0  0  0  0  0  0  0  0  0  0  0
    3.9930   -0.6440    0.5920 O   0  0  0  0  0  0  0  0  0  0  0  0
    2.2070   -0.2470   -0.9380 C   0  0  0  0  0  0  0  0  0  0  0  0
    3.1410   -0.1690   -1.9530 O   0  0  0  0  0  0  0  0  0  0  0  0
    0.8520   -0.0960   -1.1500 C   0  0  0  0  0  0  0  0  0  0  0  0
    1.7080    1.4940    0.7830 O   0  0  0  0  0  0  0  0  0  0  0  0
    1.5320    0.5470   -0.0220 C   0  0  0  0  0  0  0  0  0  0  0  0
    2.2120    0.5780   -1.2270 O   0  0  0  0  0  0  0  0  0  0  0  0
    0.6050   -0.5390    0.3770 C   0  0  2  0  0  0  0  0  0  0  0  0
    0.5100   -1.5160   -0.6110 O   0  0  0  0  0  0  0  0  0  0  0  0
   -0.7880   -0.0300    0.6600 C   0  0  1  0  0  0  0  0  0  0  0  0
   -0.7040    0.9350    1.6340 O   0  0  0  0  0  0  0  0  0  0  0  0
   -1.5070    0.3940   -0.5390 C   0  0  0  0  0  0  0  0  0  0  0  0
   -1.9910    1.5490   -0.6290 O   0  0  0  0  0  0  0  0  0  0  0  0
   -1.6760   -0.4670   -1.6100 O   0  0  0  0  0  0  0  0  0  0  0  0
    2.2860    1.1750    1.2470 O   0  0  0  0  0  0  0  0  0  0  0  0
    1.7420    0.4500    0.3770 C   0  0  0  0  0  0  0  0  0  0  0  0
    2.4460   -0.6510   -0.0890 O   0  0  0  0  0  0  0  0  0  0  0  0
    0.3960    0.6870   -0.1910 C   0  0  2  0  0  0  0  0  0  0  0  0
   -0.2320    1.7900    0.3190 O   0  0  0  0  0  0  0  0  0  0  0  0
   -0.4070   -0.5910    0.0370 C   0  0  2  0  0  0  0  0  0  0  0  0
    0.3060   -1.6310   -0.5080 O   0  0  0  0  0  0  0  0  0  0  0  0
   -1.7520   -0.4680   -0.5610 C   0  0  0  0  0  0  0  0  0  0  0  0
   -2.0750   -1.2890   -1.4570 O   0  0  0  0  0  0  0  0  0  0  0  0
   -2.6690    0.4930   -0.1950 O   0  0  0  0  0  0  0  0  0  0  0  0
  1  2  1  0
  2  3  1  0
  3  4  1  6
  3  5  1  0
  5  6  2  0
  5 12  1  0
  6  7  1  0
  7  8  2  0
  8  9  1  0
  8 10  1  0
 10 11  1  0
 10 12  2  0
 13 14  2  0
 14 15  1  0
 14 16  1  0
 16 17  1  6
 16 18  1  0
 18 19  1  1
 18 20  1  0
 20 21  2  0
 20 22  1  0
 23 24  2  0
 24 25  1  0
 24 26  1  0
 26 27  1  1
 26 28  1  0
 28 29  1  6
 28 30  1  0
 30 31  2  0
 30 32  1  0
M  CHG  1   1   1
M  END
>  <MODEL>  (11) 
       1

$$$$
../data/sim100/CHEMBL2062274.pdb
     RDKit          3D

 32 30  0  0  1  0  0  0  0  0999 V2000
   -2.8210   -0.1970    1.3200 N   0  0  0  0  0  0  0  0  0  0  0  0
   -2.6340    0.1810   -0.0590 C   0  0  0  0  0  0  0  0  0  0  0  0
   -1.4860   -0.4540   -0.7460 C   0  0  1  0  0  0  0  0  0  0  0  0
   -1.4740    0.0150   -2.0780 O   0  0  0  0  0  0  0  0  0  0  0  0
   -0.1540   -0.1690   -0.2070 C   0  0  0  0  0  0  0  0  0  0  0  0
    0.1420    0.4060    0.9910 C   0  0  0  0  0  0  0  0  0  0  0  0
    1.4670    0.5960    1.3390 C   0  0  0  0  0  0  0  0  0  0  0  0
    2.5210    0.2340    0.5370 C   0  0  0  0  0  0  0  0  0  0  0  0
    3.8470    0.4320    0.9000 O   0  0  0  0  0  0  0  0  0  0  0  0
    2.2180   -0.3490   -0.6790 C   0  0  0  0  0  0  0  0  0  0  0  0
    3.2830   -0.7230   -1.5080 O   0  0  0  0  0  0  0  0  0  0  0  0
    0.9130   -0.5440   -1.0390 C   0  0  0  0  0  0  0  0  0  0  0  0
    1.4330   -0.5240   -1.7410 O   0  0  0  0  0  0  0  0  0  0  0  0
    1.3970   -0.0270   -0.5860 C   0  0  0  0  0  0  0  0  0  0  0  0
    2.1460    1.1200   -0.3690 O   0  0  0  0  0  0  0  0  0  0  0  0
    0.5920   -0.6400    0.4910 C   0  0  2  0  0  0  0  0  0  0  0  0
   -0.0540   -1.7730    0.0010 O   0  0  0  0  0  0  0  0  0  0  0  0
   -0.4770    0.3270    1.0130 C   0  0  2  0  0  0  0  0  0  0  0  0
   -1.1540   -0.3600    2.0170 O   0  0  0  0  0  0  0  0  0  0  0  0
   -1.3990    0.5880   -0.0900 C   0  0  0  0  0  0  0  0  0  0  0  0
   -2.5940    0.1990   -0.0220 O   0  0  0  0  0  0  0  0  0  0  0  0
   -1.0550    1.2560   -1.2580 O   0  0  0  0  0  0  0  0  0  0  0  0
   -2.6760   -0.9380    0.0660 O   0  0  0  0  0  0  0  0  0  0  0  0
   -1.8370   -0.0370   -0.1830 C   0  0  0  0  0  0  0  0  0  0  0  0
   -2.2150    0.9710   -1.0580 O   0  0  0  0  0  0  0  0  0  0  0  0
   -0.5150   -0.0990    0.4600 C   0  0  1  0  0  0  0  0  0  0  0  0
   -0.4120   -1.1970    1.2740 O   0  0  0  0  0  0  0  0  0  0  0  0
    0.6160    0.0020   -0.5540 C   0  0  2  0  0  0  0  0  0  0  0  0
    0.6770   -1.0810   -1.3950 O   0  0  0  0  0  0  0  0  0  0  0  0
    1.9060    0.2740    0.1280 C   0  0  0  0  0  0  0  0  0  0  0  0
    2.8900   -0.4700   -0.1080 O   0  0  0  0  0  0  0  0  0  0  0  0
    2.1010    1.3100    1.0240 O   0  0  0  0  0  0  0  0  0  0  0  0
  1  2  1  0
  2  3  1  0
  3  4  1  6
  3  5  1  0
  5  6  2  0
  5 12  1  0
  6  7  1  0
  7  8  2  0
  8  9  1  0
  8 10  1  0
 10 11  1  0
 10 12  2  0
 13 14  2  0
 14 15  1  0
 14 16  1  0
 16 17  1  6
 16 18  1  0
 18 19  1  1
 18 20  1  0
 20 21  2  0
 20 22  1  0
 23 24  2  0
 24 25  1  0
 24 26  1  0
 26 27  1  6
 26 28  1  0
 28 29  1  1
 28 30  1  0
 30 31  2  0
 30 32  1  0
M  CHG  1   1   1
M  END
>  <MODEL>  (12) 
       2

$$$$
../data/sim100/CHEMBL2062274.pdb
     RDKit          3D

 32 30  0  0  1  0  0  0  0  0999 V2000
   -3.5730    0.9770   -0.1120 N   0  0  0  0  0  0  0  0  0  0  0  0
   -2.2730    0.5350   -0.5520 C   0  0  0  0  0  0  0  0  0  0  0  0
   -1.4490    0.2170    0.6780 C   0  0  1  0  0  0  0  0  0  0  0  0
   -2.1220   -0.7890    1.3680 O   0  0  0  0  0  0  0  0  0  0  0  0
   -0.0840   -0.1700    0.2970 C   0  0  0  0  0  0  0  0  0  0  0  0
    0.2090   -1.3940   -0.2500 C   0  0  0  0  0  0  0  0  0  0  0  0
    1.4980   -1.7030   -0.5870 C   0  0  0  0  0  0  0  0  0  0  0  0
    2.5480   -0.8050   -0.3930 C   0  0  0  0  0  0  0  0  0  0  0  0
    3.8450   -1.1360   -0.7410 O   0  0  0  0  0  0  0  0  0  0  0  0
    2.2470    0.4140    0.1530 C   0  0  0  0  0  0  0  0  0  0  0  0
    3.2620    1.3410    0.3650 O   0  0  0  0  0  0  0  0  0  0  0  0
    0.9440    0.7220    0.4920 C   0  0  0  0  0  0  0  0  0  0  0  0
   -2.6130   -0.7250   -0.3860 O   0  0  0  0  0  0  0  0  0  0  0  0
   -1.5100   -0.7480    0.2130 C   0  0  0  0  0  0  0  0  0  0  0  0
   -1.1260   -1.9720    0.7320 O   0  0  0  0  0  0  0  0  0  0  0  0
   -0.7120    0.4580    0.3360 C   0  0  2  0  0  0  0  0  0  0  0  0
   -1.4330    1.5330   -0.2530 O   0  0  0  0  0  0  0  0  0  0  0  0
    0.6020    0.4630   -0.4040 C   0  0  1  0  0  0  0  0  0  0  0  0
    1.1520    1.7520   -0.1530 O   0  0  0  0  0  0  0  0  0  0  0  0
    1.5700   -0.5480    0.0390 C   0  0  0  0  0  0  0  0  0  0  0  0
    1.3070   -1.7500   -0.1320 O   0  0  0  0  0  0  0  0  0  0  0  0
    2.7660   -0.2180    0.6410 O   0  0  0  0  0  0  0  0  0  0  0  0
   -2.8130    0.1800    0.1140 O   0  0  0  0  0  0  0  0  0  0  0  0
   -1.7610    0.3850   -0.5510 C   0  0  0  0  0  0  0  0  0  0  0  0
   -1.7080    1.5380   -1.3080 O   0  0  0  0  0  0  0  0  0  0  0  0
   -0.6110   -0.5890   -0.5200 C   0  0  2  0  0  0  0  0  0  0  0  0
   -0.9370   -1.6420    0.3120 O   0  0  0  0  0  0  0  0  0  0  0  0
    0.5570    0.1770    0.0800 C   0  0  2  0  0  0  0  0  0  0  0  0
    0.9170    1.2400   -0.7200 O   0  0  0  0  0  0  0  0  0  0  0  0
    1.6990   -0.7130    0.4010 C   0  0  0  0  0  0  0  0  0  0  0  0
    1.4940   -1.7110    1.1210 O   0  0  0  0  0  0  0  0  0  0  0  0
    2.9860   -0.4950   -0.0560 O   0  0  0  0  0  0  0  0  0  0  0  0
  1  2  1  0
  2  3  1  0
  3  4  1  6
  3  5  1  0
  5  6  2  0
  5 12  1  0
  6  7  1  0
  7  8  2  0
  8  9  1  0
  8 10  1  0
 10 11  1  0
 10 12  2  0
 13 14  2  0
 14 15  1  0
 14 16  1  0
 16 17  1  6
 16 18  1  0
 18 19  1  1
 18 20  1  0
 20 21  2  0
 20 22  1  0
 23 24  2  0
 24 25  1  0
 24 26  1  0
 26 27  1  1
 26 28  1  0
 28 29  1  6
 28 30  1  0
 30 31  2  0
 30 32  1  0
M  CHG  1   1   1
M  END
>  <MODEL>  (13) 
       3

$$$$
../data/sim100/CHEMBL2062274.pdb
     RDKit          3D

 32 30  0  0  1  0  0  0  0  0999 V2000
   -1.8240   -1.5580   -1.4980 N   0  0  0  0  0  0  0  0  0  0  0  0
   -2.2960   -0.2450   -1.1380 C   0  0  0  0  0  0  0  0  0  0  0  0
   -1.8230    0.1980    0.2210 C   0  0  1  0  0  0  0  0  0  0  0  0
   -2.2350   -0.6370    1.2330 O   0  0  0  0  0  0  0  0  0  0  0  0
   -0.3570    0.3590    0.2950 C   0  0  0  0  0  0  0  0  0  0  0  0
    0.1910    1.6160    0.1660 C   0  0  0  0  0  0  0  0  0  0  0  0
    1.5640    1.8250    0.2280 C   0  0  0  0  0  0  0  0  0  0  0  0
    2.4300    0.7480    0.4260 C   0  0  0  0  0  0  0  0  0  0  0  0
    3.8120    0.9660    0.4870 O   0  0  0  0  0  0  0  0  0  0  0  0
    1.8600   -0.5030    0.5530 C   0  0  0  0  0  0  0  0  0  0  0  0
    2.6690   -1.6220    0.7530 O   0  0  0  0  0  0  0  0  0  0  0  0
    0.4810   -0.7140    0.4910 C   0  0  0  0  0  0  0  0  0  0  0  0
    1.3680    1.4800   -1.0310 O   0  0  0  0  0  0  0  0  0  0  0  0
    1.4340    0.5770   -0.1570 C   0  0  0  0  0  0  0  0  0  0  0  0
    2.2230    0.7680    0.9640 O   0  0  0  0  0  0  0  0  0  0  0  0
    0.6490   -0.6620   -0.3800 C   0  0  1  0  0  0  0  0  0  0  0  0
    0.8650   -1.5090    0.6910 O   0  0  0  0  0  0  0  0  0  0  0  0
   -0.8050   -0.2950   -0.5480 C   0  0  1  0  0  0  0  0  0  0  0  0
   -1.5110   -1.4710   -0.7560 O   0  0  0  0  0  0  0  0  0  0  0  0
   -1.3450    0.4450    0.6050 C   0  0  0  0  0  0  0  0  0  0  0  0
   -2.3200   -0.0320    1.2380 O   0  0  0  0  0  0  0  0  0  0  0  0
   -0.8400    1.6560    1.0510 O   0  0  0  0  0  0  0  0  0  0  0  0
    0.8540    1.9990    0.7750 O   0  0  0  0  0  0  0  0  0  0  0  0
    1.3360    0.9980    0.1660 C   0  0  0  0  0  0  0  0  0  0  0  0
    2.5640    1.2030   -0.4850 O   0  0  0  0  0  0  0  0  0  0  0  0
    0.6920   -0.3160    0.1120 C   0  0  2  0  0  0  0  0  0  0  0  0
    1.5320   -1.1900   -0.6200 O   0  0  0  0  0  0  0  0  0  0  0  0
   -0.6230   -0.3580   -0.6200 C   0  0  1  0  0  0  0  0  0  0  0  0
   -1.0170   -1.7200   -0.5710 O   0  0  0  0  0  0  0  0  0  0  0  0
   -1.7090    0.4160   -0.0340 C   0  0  0  0  0  0  0  0  0  0  0  0
   -1.6120    1.6590    0.0090 O   0  0  0  0  0  0  0  0  0  0  0  0
   -2.8440   -0.1710    0.4760 O   0  0  0  0  0  0  0  0  0  0  0  0
  1  2  1  0
  2  3  1  0
  3  4  1  1
  3  5  1  0
  5  6  2  0
  5 12  1  0
  6  7  1  0
  7  8  2  0
  8  9  1  0
  8 10  1  0
 10 11  1  0
 10 12  2  0
 13 14  2  0
 14 15  1  0
 14 16  1  0
 16 17  1  1
 16 18  1  0
 18 19  1  1
 18 20  1  0
 20 21  2  0
 20 22  1  0
 23 24  2  0
 24 25  1  0
 24 26  1  0
 26 27  1  6
 26 28  1  0
 28 29  1  1
 28 30  1  0
 30 31  2  0
 30 32  1  0
M  CHG  1   1   1
M  END
>  <MODEL>  (14) 
       4

$$$$
../data/sim100/CHEMBL1320902.pdb
     RDKit          3D

 13 13  0  0  1  0  0  0  0  0999 V2000
   -1.8970    1.2590    0.9630 C   0  0  0  0  0  0  0  0  0  0  0  0
   -2.0550   -0.1380    0.4150 C   0  0  1  0  0  0  0  0  0  0  0  0
   -3.4620   -0.3550    0.1670 N   0  0  0  0  0  0  0  0  0  0  0  0
   -1.2950   -0.3140   -0.8910 C   0  0  2  0  0  0  0  0  0  0  0  0
   -1.5040   -1.5960   -1.3560 O   0  0  0  0  0  0  0  0  0  0  0  0
    0.1620   -0.1230   -0.6750 C   0  0  0  0  0  0  0  0  0  0  0  0
    0.8010    1.0310   -1.1040 C   0  0  0  0  0  0  0  0  0  0  0  0
    2.1580    1.2010   -0.8990 C   0  0  0  0  0  0  0  0  0  0  0  0
    2.8650    0.2060   -0.2610 C   0  0  0  0  0  0  0  0  0  0  0  0
    4.2450    0.3570   -0.0410 O   0  0  0  0  0  0  0  0  0  0  0  0
    2.2510   -0.9390    0.1700 C   0  0  0  0  0  0  0  0  0  0  0  0
    2.9740   -1.9370    0.8130 O   0  0  0  0  0  0  0  0  0  0  0  0
    0.8840   -1.1130   -0.0360 C   0  0  0  0  0  0  0  0  0  0  0  0
  2  1  1  6
  2  3  1  0
  2  4  1  0
  4  5  1  1
  4  6  1  0
  6  7  2  0
  6 13  1  0
  7  8  1  0
  8  9  2  0
  9 10  1  0
  9 11  1  0
 11 12  1  0
 11 13  2  0
M  CHG  1   3   1
M  END
>  <MODEL>  (15) 
       1

$$$$
../data/sim100/CHEMBL1320902.pdb
     RDKit          3D

 13 13  0  0  1  0  0  0  0  0999 V2000
    1.9740   -0.1470    1.3470 C   0  0  0  0  0  0  0  0  0  0  0  0
    2.1180    0.3600   -0.0690 C   0  0  1  0  0  0  0  0  0  0  0  0
    3.4500    0.1130   -0.5380 N   0  0  0  0  0  0  0  0  0  0  0  0
    1.1140   -0.3820   -0.9450 C   0  0  2  0  0  0  0  0  0  0  0  0
    1.2180    0.0550   -2.2700 O   0  0  0  0  0  0  0  0  0  0  0  0
   -0.2680   -0.1210   -0.5040 C   0  0  0  0  0  0  0  0  0  0  0  0
   -0.8700    1.0960   -0.7870 C   0  0  0  0  0  0  0  0  0  0  0  0
   -2.1580    1.3910   -0.3980 C   0  0  0  0  0  0  0  0  0  0  0  0
   -2.8780    0.4520    0.2940 C   0  0  0  0  0  0  0  0  0  0  0  0
   -4.1710    0.7270    0.6920 O   0  0  0  0  0  0  0  0  0  0  0  0
   -2.3080   -0.7800    0.5960 C   0  0  0  0  0  0  0  0  0  0  0  0
   -3.0850   -1.7090    1.3070 O   0  0  0  0  0  0  0  0  0  0  0  0
   -1.0250   -1.0490    0.1980 C   0  0  0  0  0  0  0  0  0  0  0  0
  2  1  1  1
  2  3  1  0
  2  4  1  0
  4  5  1  6
  4  6  1  0
  6  7  2  0
  6 13  1  0
  7  8  1  0
  8  9  2  0
  9 10  1  0
  9 11  1  0
 11 12  1  0
 11 13  2  0
M  CHG  1   3   1
M  END
>  <MODEL>  (16) 
       2

$$$$
../data/sim100/CHEMBL764.pdb
     RDKit          3D

 13 13  0  0  1  0  0  0  0  0999 V2000
    3.3800    0.4040    0.0440 C   0  0  0  0  0  0  0  0  0  0  0  0
    1.9350    0.3590   -0.4240 C   0  0  1  0  0  0  0  0  0  0  0  0
    1.7270   -0.6720   -1.4180 N   0  0  0  0  0  0  0  0  0  0  0  0
    1.0050    0.1110    0.7380 C   0  0  2  0  0  0  0  0  0  0  0  0
    1.3100   -1.1510    1.2640 O   0  0  0  0  0  0  0  0  0  0  0  0
   -0.3910    0.1550    0.2670 C   0  0  0  0  0  0  0  0  0  0  0  0
   -1.1850    1.2510    0.5810 C   0  0  0  0  0  0  0  0  0  0  0  0
   -2.4940    1.3550    0.1730 C   0  0  0  0  0  0  0  0  0  0  0  0
   -3.0140    0.3210   -0.5730 C   0  0  0  0  0  0  0  0  0  0  0  0
   -4.3370    0.4060   -0.9960 O   0  0  0  0  0  0  0  0  0  0  0  0
   -2.2740   -0.7880   -0.9140 C   0  0  0  0  0  0  0  0  0  0  0  0
   -2.8540   -1.7780   -1.6580 O   0  0  0  0  0  0  0  0  0  0  0  0
   -0.9690   -0.8460   -0.4830 C   0  0  0  0  0  0  0  0  0  0  0  0
  2  1  1  1
  2  3  1  0
  2  4  1  0
  4  5  1  6
  4  6  1  0
  6  7  2  0
  6 13  1  0
  7  8  1  0
  8  9  2  0
  9 10  1  0
  9 11  1  0
 11 12  1  0
 11 13  2  0
M  CHG  1   3   1
M  END
$$$$
../data/sim100/CHEMBL1434513.pdb
     RDKit          3D

 23 21  0  0  1  0  0  0  0  0999 V2000
   -3.7170    0.3230   -0.1860 N   0  0  0  0  0  0  0  0  0  0  0  0
   -2.3170    0.7570   -0.0610 C   0  0  0  0  0  0  0  0  0  0  0  0
   -1.4290   -0.4510   -0.0890 C   0  0  2  0  0  0  0  0  0  0  0  0
   -1.7240   -1.3260    0.9540 O   0  0  0  0  0  0  0  0  0  0  0  0
    0.0020   -0.1350   -0.1550 C   0  0  0  0  0  0  0  0  0  0  0  0
    0.4500    1.1380   -0.3260 C   0  0  0  0  0  0  0  0  0  0  0  0
    1.8230    1.3590   -0.3790 C   0  0  0  0  0  0  0  0  0  0  0  0
    2.7420    0.3350   -0.2650 C   0  0  0  0  0  0  0  0  0  0  0  0
    4.1140    0.6010   -0.3240 O   0  0  0  0  0  0  0  0  0  0  0  0
    2.2870   -0.9570   -0.0910 C   0  0  0  0  0  0  0  0  0  0  0  0
    3.2260   -1.9640    0.0220 O   0  0  0  0  0  0  0  0  0  0  0  0
    0.9260   -1.1770   -0.0380 C   0  0  0  0  0  0  0  0  0  0  0  0
   -0.0060    0.3650   -0.0000 O   0  0  0  0  0  0  0  0  0  0  0  0
   -2.5560   -0.0040   -0.2450 O   0  0  0  0  0  0  0  0  0  0  0  0
   -1.3970    0.4580   -0.1070 C   0  0  0  0  0  0  0  0  0  0  0  0
   -1.0190    1.5880   -0.8110 O   0  0  0  0  0  0  0  0  0  0  0  0
   -0.4940   -0.2600    0.8250 C   0  0  1  0  0  0  0  0  0  0  0  0
   -1.1040   -1.3510    1.4010 O   0  0  0  0  0  0  0  0  0  0  0  0
    0.7590   -0.7470    0.1290 C   0  0  1  0  0  0  0  0  0  0  0  0
    0.4900   -1.6770   -0.8520 O   0  0  0  0  0  0  0  0  0  0  0  0
    1.5810    0.3810   -0.3800 C   0  0  0  0  0  0  0  0  0  0  0  0
    1.9200    0.3560   -1.5900 O   0  0  0  0  0  0  0  0  0  0  0  0
    1.9220    1.3850    0.5080 O   0  0  0  0  0  0  0  0  0  0  0  0
  1  2  1  0
  2  3  1  0
  3  4  1  1
  3  5  1  0
  5  6  2  0
  5 12  1  0
  6  7  1  0
  7  8  2  0
  8  9  1  0
  8 10  1  0
 10 11  1  0
 10 12  2  0
 14 15  2  0
 15 16  1  0
 15 17  1  0
 17 18  1  6
 17 19  1  0
 19 20  1  6
 19 21  1  0
 21 22  2  0
 21 23  1  0
M  CHG  1   1   1
M  END
>  <MODEL>  (18) 
       1

$$$$
../data/sim100/CHEMBL1434513.pdb
     RDKit          3D

 23 21  0  0  1  0  0  0  0  0999 V2000
   -2.4170    0.6000    1.2940 N   0  0  0  0  0  0  0  0  0  0  0  0
   -2.4060   -0.3480    0.2180 C   0  0  0  0  0  0  0  0  0  0  0  0
   -1.6660    0.1690   -1.0110 C   0  0  2  0  0  0  0  0  0  0  0  0
   -1.7410   -0.8550   -1.9630 O   0  0  0  0  0  0  0  0  0  0  0  0
   -0.2260    0.2940   -0.5850 C   0  0  0  0  0  0  0  0  0  0  0  0
    0.3880    1.5100   -0.4680 C   0  0  0  0  0  0  0  0  0  0  0  0
    1.7030    1.5680   -0.0750 C   0  0  0  0  0  0  0  0  0  0  0  0
    2.4690    0.4390    0.2180 C   0  0  0  0  0  0  0  0  0  0  0  0
    3.7840    0.5970    0.6050 O   0  0  0  0  0  0  0  0  0  0  0  0
    1.8230   -0.7710    0.0910 C   0  0  0  0  0  0  0  0  0  0  0  0
    2.5270   -1.9330    0.3670 O   0  0  0  0  0  0  0  0  0  0  0  0
    0.4830   -0.8310   -0.3090 C   0  0  0  0  0  0  0  0  0  0  0  0
   -0.0030    0.3780   -0.0000 O   0  0  0  0  0  0  0  0  0  0  0  0
   -1.7410   -0.5960   -1.7370 O   0  0  0  0  0  0  0  0  0  0  0  0
   -1.5530   -0.5500   -0.4940 C   0  0  0  0  0  0  0  0  0  0  0  0
   -2.1130   -1.6070    0.2400 O   0  0  0  0  0  0  0  0  0  0  0  0
   -0.7990    0.5310    0.1720 C   0  0  1  0  0  0  0  0  0  0  0  0
   -0.7670    0.3030    1.5300 O   0  0  0  0  0  0  0  0  0  0  0  0
    0.5920    0.6800   -0.4210 C   0  0  1  0  0  0  0  0  0  0  0  0
    1.2210    1.7570    0.1920 O   0  0  0  0  0  0  0  0  0  0  0  0
    1.3940   -0.5410   -0.2540 C   0  0  0  0  0  0  0  0  0  0  0  0
    0.9830   -1.6120   -0.7420 O   0  0  0  0  0  0  0  0  0  0  0  0
    2.5900   -0.5360    0.4270 O   0  0  0  0  0  0  0  0  0  0  0  0
  1  2  1  0
  2  3  1  0
  3  4  1  6
  3  5  1  0
  5  6  2  0
  5 12  1  0
  6  7  1  0
  7  8  2  0
  8  9  1  0
  8 10  1  0
 10 11  1  0
 10 12  2  0
 14 15  2  0
 15 16  1  0
 15 17  1  0
 17 18  1  1
 17 19  1  0
 19 20  1  1
 19 21  1  0
 21 22  2  0
 21 23  1  0
M  CHG  1   1   1
M  END
>  <MODEL>  (19) 
       2

$$$$
../data/sim100/CHEMBL1734806.pdb
     RDKit          3D

 13 12  0  0  1  0  0  0  0  0999 V2000
    0.6870    0.0000    0.0000 Cl  0  0  0  0  0  0  0  0  0  0  0  0
   -2.4390    1.3820   -0.7030 N   0  0  0  0  0  0  0  0  0  0  0  0
   -2.4840    0.2840    0.2450 C   0  0  0  0  0  0  0  0  0  0  0  0
   -1.6180   -0.8520   -0.2140 C   0  0  1  0  0  0  0  0  0  0  0  0
   -2.0670   -1.3020   -1.4400 O   0  0  0  0  0  0  0  0  0  0  0  0
   -0.1810   -0.5340   -0.1900 C   0  0  0  0  0  0  0  0  0  0  0  0
    0.6930   -1.4280   -0.7740 C   0  0  0  0  0  0  0  0  0  0  0  0
    2.0390   -1.2210   -0.8010 C   0  0  0  0  0  0  0  0  0  0  0  0
    2.5950   -0.0900   -0.2360 C   0  0  0  0  0  0  0  0  0  0  0  0
    3.9820    0.1370   -0.2570 O   0  0  0  0  0  0  0  0  0  0  0  0
    1.7290    0.8090    0.3500 C   0  0  0  0  0  0  0  0  0  0  0  0
    2.2700    1.9500    0.9210 O   0  0  0  0  0  0  0  0  0  0  0  0
    0.3670    0.5940    0.3740 C   0  0  0  0  0  0  0  0  0  0  0  0
  2  3  1  0
  3  4  1  0
  4  5  1  6
  4  6  1  0
  6  7  2  0
  6 13  1  0
  7  8  1  0
  8  9  2  0
  9 10  1  0
  9 11  1  0
 11 12  1  0
 11 13  2  0
M  CHG  1   2   1
M  END
$$$$
../data/sim100/CHEMBL1356607.pdb
     RDKit          3D

 22 21  0  0  1  0  0  0  0  0999 V2000
   -2.8210   -0.8840   -0.3860 N   0  0  0  0  0  0  0  0  0  0  0  0
   -2.4330    0.0820    0.6030 C   0  0  0  0  0  0  0  0  0  0  0  0
   -1.3810    1.0360    0.1160 C   0  0  2  0  0  0  0  0  0  0  0  0
   -1.8000    1.7700   -0.9920 O   0  0  0  0  0  0  0  0  0  0  0  0
   -0.0640    0.3870   -0.1000 C   0  0  0  0  0  0  0  0  0  0  0  0
    0.2350   -0.2780   -1.2650 C   0  0  0  0  0  0  0  0  0  0  0  0
    1.4730   -0.8870   -1.4670 C   0  0  0  0  0  0  0  0  0  0  0  0
    2.4140   -0.8150   -0.4670 C   0  0  0  0  0  0  0  0  0  0  0  0
    3.6740   -1.4110   -0.6200 O   0  0  0  0  0  0  0  0  0  0  0  0
    2.1560   -0.1600    0.7130 C   0  0  0  0  0  0  0  0  0  0  0  0
    3.1310   -0.1090    1.6980 O   0  0  0  0  0  0  0  0  0  0  0  0
    0.9230    0.4250    0.8670 C   0  0  0  0  0  0  0  0  0  0  0  0
    2.1110   -0.8170   -1.1220 O   0  0  0  0  0  0  0  0  0  0  0  0
    1.7220   -0.3180   -0.0370 C   0  0  0  0  0  0  0  0  0  0  0  0
    2.5520    0.6030    0.5840 O   0  0  0  0  0  0  0  0  0  0  0  0
    0.4030   -0.7220    0.5440 C   0  0  1  0  0  0  0  0  0  0  0  0
    0.1660   -0.0670    1.7240 O   0  0  0  0  0  0  0  0  0  0  0  0
   -0.7170   -0.5610   -0.4570 C   0  0  1  0  0  0  0  0  0  0  0  0
   -1.8680   -1.0870    0.1370 O   0  0  0  0  0  0  0  0  0  0  0  0
   -0.9610    0.8480   -0.7520 C   0  0  0  0  0  0  0  0  0  0  0  0
   -0.0520    1.5190   -1.2930 O   0  0  0  0  0  0  0  0  0  0  0  0
   -2.1400    1.5150   -0.4770 O   0  0  0  0  0  0  0  0  0  0  0  0
  1  2  1  0
  2  3  1  0
  3  4  1  6
  3  5  1  0
  5  6  2  0
  5 12  1  0
  6  7  1  0
  7  8  2  0
  8  9  1  0
  8 10  1  0
 10 11  1  0
 10 12  2  0
 13 14  2  0
 14 15  1  0
 14 16  1  0
 16 17  1  1
 16 18  1  0
 18 19  1  1
 18 20  1  0
 20 21  2  0
 20 22  1  0
M  CHG  1   1   1
M  END
>  <MODEL>  (21) 
       1

$$$$
../data/sim100/CHEMBL1356607.pdb
     RDKit          3D

 22 21  0  0  1  0  0  0  0  0999 V2000
   -3.7050   -0.2560    0.4160 N   0  0  0  0  0  0  0  0  0  0  0  0
   -2.2540   -0.5220    0.4340 C   0  0  0  0  0  0  0  0  0  0  0  0
   -1.4790    0.7520    0.3200 C   0  0  2  0  0  0  0  0  0  0  0  0
   -1.8240    1.4020   -0.8710 O   0  0  0  0  0  0  0  0  0  0  0  0
   -0.0220    0.4370    0.3180 C   0  0  0  0  0  0  0  0  0  0  0  0
    0.9120    1.4130   -0.0340 C   0  0  0  0  0  0  0  0  0  0  0  0
    2.2410    1.0940   -0.0320 C   0  0  0  0  0  0  0  0  0  0  0  0
    2.7020   -0.1500    0.3040 C   0  0  0  0  0  0  0  0  0  0  0  0
    4.0430   -0.4980    0.3140 O   0  0  0  0  0  0  0  0  0  0  0  0
    1.7930   -1.1250    0.6540 C   0  0  0  0  0  0  0  0  0  0  0  0
    2.1810   -2.3950    1.0020 O   0  0  0  0  0  0  0  0  0  0  0  0
    0.4250   -0.8160    0.6570 C   0  0  0  0  0  0  0  0  0  0  0  0
    2.3040    0.2880    0.8130 O   0  0  0  0  0  0  0  0  0  0  0  0
    1.7580   -0.5760    0.0930 C   0  0  0  0  0  0  0  0  0  0  0  0
    2.5710   -1.3350   -0.7250 O   0  0  0  0  0  0  0  0  0  0  0  0
    0.2970   -0.7350    0.1560 C   0  0  2  0  0  0  0  0  0  0  0  0
   -0.1930   -1.7100   -0.6760 O   0  0  0  0  0  0  0  0  0  0  0  0
   -0.3260    0.6140   -0.1230 C   0  0  2  0  0  0  0  0  0  0  0  0
    0.2260    1.5270    0.7580 O   0  0  0  0  0  0  0  0  0  0  0  0
   -1.8010    0.5710   -0.0350 C   0  0  0  0  0  0  0  0  0  0  0  0
   -2.4050   -0.2270   -0.7950 O   0  0  0  0  0  0  0  0  0  0  0  0
   -2.5140    1.3740    0.8460 O   0  0  0  0  0  0  0  0  0  0  0  0
  1  2  1  0
  2  3  1  0
  3  4  1  6
  3  5  1  0
  5  6  2  0
  5 12  1  0
  6  7  1  0
  7  8  2  0
  8  9  1  0
  8 10  1  0
 10 11  1  0
 10 12  2  0
 13 14  2  0
 14 15  1  0
 14 16  1  0
 16 17  1  6
 16 18  1  0
 18 19  1  1
 18 20  1  0
 20 21  2  0
 20 22  1  0
M  CHG  1   1   1
M  END
>  <MODEL>  (22) 
       2

$$$$
../data/sim100/CHEMBL1356607.pdb
     RDKit          3D

 22 21  0  0  1  0  0  0  0  0999 V2000
    3.6280    0.5730   -0.1610 N   0  0  0  0  0  0  0  0  0  0  0  0
    2.2810    0.1910   -0.5090 C   0  0  0  0  0  0  0  0  0  0  0  0
    1.3860    0.5190    0.6740 C   0  0  2  0  0  0  0  0  0  0  0  0
    1.8270   -0.1960    1.7850 O   0  0  0  0  0  0  0  0  0  0  0  0
   -0.0230    0.1130    0.4290 C   0  0  0  0  0  0  0  0  0  0  0  0
   -0.3980   -1.1990    0.4640 C   0  0  0  0  0  0  0  0  0  0  0  0
   -1.6910   -1.6330    0.2440 C   0  0  0  0  0  0  0  0  0  0  0  0
   -2.6270   -0.6420   -0.0240 C   0  0  0  0  0  0  0  0  0  0  0  0
   -3.9320   -0.9920   -0.2540 O   0  0  0  0  0  0  0  0  0  0  0  0
   -2.2590    0.6870   -0.0620 C   0  0  0  0  0  0  0  0  0  0  0  0
   -3.2320    1.6370   -0.3350 O   0  0  0  0  0  0  0  0  0  0  0  0
   -0.9700    1.0720    0.1610 C   0  0  0  0  0  0  0  0  0  0  0  0
   -2.2840    0.5250   -0.6170 O   0  0  0  0  0  0  0  0  0  0  0  0
   -1.6180    0.1910    0.4080 C   0  0  0  0  0  0  0  0  0  0  0  0
   -1.9550    0.7930    1.5950 O   0  0  0  0  0  0  0  0  0  0  0  0
   -0.5340   -0.8100    0.2790 C   0  0  2  0  0  0  0  0  0  0  0  0
    0.0710   -1.0420    1.4910 O   0  0  0  0  0  0  0  0  0  0  0  0
    0.4220   -0.3520   -0.7970 C   0  0  2  0  0  0  0  0  0  0  0  0
    1.3820   -1.3490   -0.9760 O   0  0  0  0  0  0  0  0  0  0  0  0
    1.0220    0.9560   -0.5110 C   0  0  0  0  0  0  0  0  0  0  0  0
    0.2760    1.9470   -0.3280 O   0  0  0  0  0  0  0  0  0  0  0  0
    2.3880    1.1680   -0.4290 O   0  0  0  0  0  0  0  0  0  0  0  0
  1  2  1  0
  2  3  1  0
  3  4  1  1
  3  5  1  0
  5  6  2  0
  5 12  1  0
  6  7  1  0
  7  8  2  0
  8  9  1  0
  8 10  1  0
 10 11  1  0
 10 12  2  0
 13 14  2  0
 14 15  1  0
 14 16  1  0
 16 17  1  1
 16 18  1  0
 18 19  1  1
 18 20  1  0
 20 21  2  0
 20 22  1  0
M  CHG  1   1   1
M  END
>  <MODEL>  (23) 
       3

$$$$
../data/sim100/CHEMBL1545498.pdb
     RDKit          3D

 11 11  0  0  0  0  0  0  0  0999 V2000
   -2.4870   -0.5550   -0.8430 C   0  0  0  0  0  0  0  0  0  0  0  0
   -1.8520   -0.3280    0.5050 C   0  0  0  0  0  0  0  0  0  0  0  0
   -2.2690    1.0170    1.1030 C   0  0  0  0  0  0  0  0  0  0  0  0
   -0.3670   -0.3490    0.3320 C   0  0  0  0  0  0  0  0  0  0  0  0
    0.4220   -1.2760    0.9790 C   0  0  0  0  0  0  0  0  0  0  0  0
    1.7890   -1.2870    0.8120 C   0  0  0  0  0  0  0  0  0  0  0  0
    2.4180   -0.3740   -0.0050 C   0  0  0  0  0  0  0  0  0  0  0  0
    3.8110   -0.3710   -0.1850 O   0  0  0  0  0  0  0  0  0  0  0  0
    1.6380    0.5580   -0.6560 C   0  0  0  0  0  0  0  0  0  0  0  0
    2.2420    1.5180   -1.5080 N   0  0  0  0  0  0  0  0  0  0  0  0
    0.2660    0.5640   -0.4860 C   0  0  0  0  0  0  0  0  0  0  0  0
  1  2  1  0
  2  3  1  0
  2  4  1  0
  4  5  2  0
  4 11  1  0
  5  6  1  0
  6  7  2  0
  7  8  1  0
  7  9  1  0
  9 10  1  0
  9 11  2  0
M  END
$$$$
../data/sim100/CHEMBL2130595.pdb
     RDKit          3D

 32 30  0  0  1  0  0  0  0  0999 V2000
    3.5420   -0.7190    0.4210 N   0  0  0  0  0  0  0  0  0  0  0  0
    2.1490   -0.4530    0.6030 C   0  0  0  0  0  0  0  0  0  0  0  0
    1.4610    0.0030   -0.6750 C   0  0  2  0  0  0  0  0  0  0  0  0
    2.0350    1.1760   -1.1630 O   0  0  0  0  0  0  0  0  0  0  0  0
    0.0360    0.1480   -0.3740 C   0  0  0  0  0  0  0  0  0  0  0  0
   -0.4190    1.2470    0.3010 C   0  0  0  0  0  0  0  0  0  0  0  0
   -1.7700    1.4130    0.6030 C   0  0  0  0  0  0  0  0  0  0  0  0
   -2.6360    0.4340    0.1990 C   0  0  0  0  0  0  0  0  0  0  0  0
   -3.9890    0.5670    0.4820 O   0  0  0  0  0  0  0  0  0  0  0  0
   -2.2090   -0.6930   -0.4880 C   0  0  0  0  0  0  0  0  0  0  0  0
   -3.0820   -1.6680   -0.8890 O   0  0  0  0  0  0  0  0  0  0  0  0
   -0.8560   -0.8090   -0.7630 C   0  0  0  0  0  0  0  0  0  0  0  0
    1.7550   -0.4410    1.6780 O   0  0  0  0  0  0  0  0  0  0  0  0
    1.5230   -0.3670    0.4500 C   0  0  0  0  0  0  0  0  0  0  0  0
    2.4690    0.2160   -0.3720 O   0  0  0  0  0  0  0  0  0  0  0  0
    0.2820   -0.8800   -0.1350 C   0  0  2  0  0  0  0  0  0  0  0  0
    0.2030   -0.7100   -1.5030 O   0  0  0  0  0  0  0  0  0  0  0  0
   -0.9610   -0.3430    0.5430 C   0  0  2  0  0  0  0  0  0  0  0  0
   -2.0380   -1.0650    0.0250 O   0  0  0  0  0  0  0  0  0  0  0  0
   -1.1820    1.0900    0.2720 C   0  0  0  0  0  0  0  0  0  0  0  0
   -2.2080    1.4940   -0.3360 O   0  0  0  0  0  0  0  0  0  0  0  0
   -0.2840    2.0740    0.6640 O   0  0  0  0  0  0  0  0  0  0  0  0
   -2.0980    0.7260   -1.0920 O   0  0  0  0  0  0  0  0  0  0  0  0
   -1.8010   -0.2610   -0.4100 C   0  0  0  0  0  0  0  0  0  0  0  0
   -2.7530   -1.0280    0.2290 O   0  0  0  0  0  0  0  0  0  0  0  0
   -0.3800   -0.6420   -0.2670 C   0  0  2  0  0  0  0  0  0  0  0  0
   -0.2390   -1.7560    0.5210 O   0  0  0  0  0  0  0  0  0  0  0  0
    0.3540    0.5660    0.2920 C   0  0  2  0  0  0  0  0  0  0  0  0
    0.1250    1.6230   -0.6070 O   0  0  0  0  0  0  0  0  0  0  0  0
    1.8170    0.3320    0.3490 C   0  0  0  0  0  0  0  0  0  0  0  0
    2.2550   -0.5770    1.0980 O   0  0  0  0  0  0  0  0  0  0  0  0
    2.7400    1.0640   -0.3830 O   0  0  0  0  0  0  0  0  0  0  0  0
  1  2  1  0
  2  3  1  0
  3  4  1  1
  3  5  1  0
  5  6  2  0
  5 12  1  0
  6  7  1  0
  7  8  2  0
  8  9  1  0
  8 10  1  0
 10 11  1  0
 10 12  2  0
 13 14  2  0
 14 15  1  0
 14 16  1  0
 16 17  1  6
 16 18  1  0
 18 19  1  6
 18 20  1  0
 20 21  2  0
 20 22  1  0
 23 24  2  0
 24 25  1  0
 24 26  1  0
 26 27  1  1
 26 28  1  0
 28 29  1  6
 28 30  1  0
 30 31  2  0
 30 32  1  0
M  CHG  1   1   1
M  END
>  <MODEL>  (25) 
       1

$$$$
../data/sim100/CHEMBL2130595.pdb
     RDKit          3D

 32 30  0  0  1  0  0  0  0  0999 V2000
   -2.5160    1.2710   -0.3230 N   0  0  0  0  0  0  0  0  0  0  0  0
   -2.4330    0.0040    0.3310 C   0  0  0  0  0  0  0  0  0  0  0  0
   -1.4990   -0.9720   -0.2790 C   0  0  2  0  0  0  0  0  0  0  0  0
   -1.5780   -2.1660    0.4720 O   0  0  0  0  0  0  0  0  0  0  0  0
   -0.0860   -0.5770   -0.3130 C   0  0  0  0  0  0  0  0  0  0  0  0
    0.8810   -1.5310   -0.6620 C   0  0  0  0  0  0  0  0  0  0  0  0
    2.2080   -1.2580   -0.7110 C   0  0  0  0  0  0  0  0  0  0  0  0
    2.6490    0.0160   -0.4060 C   0  0  0  0  0  0  0  0  0  0  0  0
    4.0030    0.2850   -0.4590 O   0  0  0  0  0  0  0  0  0  0  0  0
    1.7240    0.9770   -0.0590 C   0  0  0  0  0  0  0  0  0  0  0  0
    2.1430    2.2690    0.2530 O   0  0  0  0  0  0  0  0  0  0  0  0
    0.3540    0.6850   -0.0110 C   0  0  0  0  0  0  0  0  0  0  0  0
    2.3920   -1.1960    0.6490 O   0  0  0  0  0  0  0  0  0  0  0  0
    1.8900   -0.2420    0.0060 C   0  0  0  0  0  0  0  0  0  0  0  0
    2.6150    0.2980   -1.0410 O   0  0  0  0  0  0  0  0  0  0  0  0
    0.5690    0.2630    0.3820 C   0  0  2  0  0  0  0  0  0  0  0  0
    0.0160   -0.4200    1.4610 O   0  0  0  0  0  0  0  0  0  0  0  0
   -0.4500    0.1230   -0.7550 C   0  0  1  0  0  0  0  0  0  0  0  0
   -0.5830   -1.2570   -0.9900 O   0  0  0  0  0  0  0  0  0  0  0  0
   -1.7390    0.6290   -0.2140 C   0  0  0  0  0  0  0  0  0  0  0  0
   -1.8110    1.8540    0.0600 O   0  0  0  0  0  0  0  0  0  0  0  0
   -2.8450   -0.1540    0.0030 O   0  0  0  0  0  0  0  0  0  0  0  0
    1.9240    1.1720   -0.7500 O   0  0  0  0  0  0  0  0  0  0  0  0
    1.5910    0.0670   -0.2620 C   0  0  0  0  0  0  0  0  0  0  0  0
    2.0960   -1.0820   -0.8350 O   0  0  0  0  0  0  0  0  0  0  0  0
    0.6840   -0.0430    0.8950 C   0  0  2  0  0  0  0  0  0  0  0  0
    0.4670   -1.3670    1.2480 O   0  0  0  0  0  0  0  0  0  0  0  0
   -0.6140    0.6950    0.6540 C   0  0  1  0  0  0  0  0  0  0  0  0
   -0.3860    2.0170    0.3020 O   0  0  0  0  0  0  0  0  0  0  0  0
   -1.4270    0.0710   -0.4100 C   0  0  0  0  0  0  0  0  0  0  0  0
   -1.7630    0.7750   -1.3940 O   0  0  0  0  0  0  0  0  0  0  0  0
   -1.8340   -1.2600   -0.3660 O   0  0  0  0  0  0  0  0  0  0  0  0
  1  2  1  0
  2  3  1  0
  3  4  1  1
  3  5  1  0
  5  6  2  0
  5 12  1  0
  6  7  1  0
  7  8  2  0
  8  9  1  0
  8 10  1  0
 10 11  1  0
 10 12  2  0
 13 14  2  0
 14 15  1  0
 14 16  1  0
 16 17  1  1
 16 18  1  0
 18 19  1  1
 18 20  1  0
 20 21  2  0
 20 22  1  0
 23 24  2  0
 24 25  1  0
 24 26  1  0
 26 27  1  6
 26 28  1  0
 28 29  1  6
 28 30  1  0
 30 31  2  0
 30 32  1  0
M  CHG  1   1   1
M  END
>  <MODEL>  (26) 
       2

$$$$
../data/sim100/CHEMBL2130595.pdb
     RDKit          3D

 32 30  0  0  1  0  0  0  0  0999 V2000
   -2.2730    0.8580    0.9120 N   0  0  0  0  0  0  0  0  0  0  0  0
   -2.3490    0.5180   -0.5120 C   0  0  0  0  0  0  0  0  0  0  0  0
   -1.4830   -0.7010   -0.7230 C   0  0  2  0  0  0  0  0  0  0  0  0
   -2.0290   -1.7080    0.0840 O   0  0  0  0  0  0  0  0  0  0  0  0
   -0.0760   -0.4340   -0.3500 C   0  0  0  0  0  0  0  0  0  0  0  0
    0.7980   -1.5010   -0.1400 C   0  0  0  0  0  0  0  0  0  0  0  0
    2.0970   -1.2490    0.2050 C   0  0  0  0  0  0  0  0  0  0  0  0
    2.5360    0.0360    0.3440 C   0  0  0  0  0  0  0  0  0  0  0  0
    3.8590    0.2480    0.6940 O   0  0  0  0  0  0  0  0  0  0  0  0
    1.6940    1.0920    0.1420 C   0  0  0  0  0  0  0  0  0  0  0  0
    2.1750    2.3750    0.2910 O   0  0  0  0  0  0  0  0  0  0  0  0
    0.3690    0.8530   -0.2100 C   0  0  0  0  0  0  0  0  0  0  0  0
   -2.5330   -0.5210    0.7670 O   0  0  0  0  0  0  0  0  0  0  0  0
   -1.2560   -0.4960    0.8160 C   0  0  0  0  0  0  0  0  0  0  0  0
   -0.7430    0.0730    1.9890 O   0  0  0  0  0  0  0  0  0  0  0  0
   -0.4190   -1.0200   -0.2630 C   0  0  1  0  0  0  0  0  0  0  0  0
   -1.2600   -1.5050   -1.2630 O   0  0  0  0  0  0  0  0  0  0  0  0
    0.4180    0.0890   -0.9170 C   0  0  1  0  0  0  0  0  0  0  0  0
   -0.4500    1.0600   -1.3770 O   0  0  0  0  0  0  0  0  0  0  0  0
    1.3650    0.6390    0.0730 C   0  0  0  0  0  0  0  0  0  0  0  0
    1.3520    1.8470    0.4260 O   0  0  0  0  0  0  0  0  0  0  0  0
    2.3180   -0.1900    0.6500 O   0  0  0  0  0  0  0  0  0  0  0  0
    1.4700   -0.8140   -1.7200 O   0  0  0  0  0  0  0  0  0  0  0  0
    1.6200   -0.5570   -0.5060 C   0  0  0  0  0  0  0  0  0  0  0  0
    2.8900   -0.2030   -0.0840 O   0  0  0  0  0  0  0  0  0  0  0  0
    0.5320   -0.6100    0.4830 C   0  0  1  0  0  0  0  0  0  0  0  0
    1.0780   -0.3360    1.7660 O   0  0  0  0  0  0  0  0  0  0  0  0
   -0.5070    0.4700    0.2950 C   0  0  2  0  0  0  0  0  0  0  0  0
   -1.4130    0.2940    1.3750 O   0  0  0  0  0  0  0  0  0  0  0  0
   -1.2400    0.4180   -0.9660 C   0  0  0  0  0  0  0  0  0  0  0  0
   -0.6520    0.6090   -2.0380 O   0  0  0  0  0  0  0  0  0  0  0  0
   -2.5850    0.1540   -0.9370 O   0  0  0  0  0  0  0  0  0  0  0  0
  1  2  1  0
  2  3  1  0
  3  4  1  1
  3  5  1  0
  5  6  2  0
  5 12  1  0
  6  7  1  0
  7  8  2  0
  8  9  1  0
  8 10  1  0
 10 11  1  0
 10 12  2  0
 13 14  2  0
 14 15  1  0
 14 16  1  0
 16 17  1  6
 16 18  1  0
 18 19  1  1
 18 20  1  0
 20 21  2  0
 20 22  1  0
 23 24  2  0
 24 25  1  0
 24 26  1  0
 26 27  1  1
 26 28  1  0
 28 29  1  1
 28 30  1  0
 30 31  2  0
 30 32  1  0
M  CHG  1   1   1
M  END
>  <MODEL>  (27) 
       3

$$$$
../data/sim100/CHEMBL2130595.pdb
     RDKit          3D

 32 30  0  0  1  0  0  0  0  0999 V2000
    3.6100    0.0890   -0.8120 N   0  0  0  0  0  0  0  0  0  0  0  0
    2.1960    0.4430   -0.6730 C   0  0  0  0  0  0  0  0  0  0  0  0
    1.5120   -0.6770    0.1140 C   0  0  2  0  0  0  0  0  0  0  0  0
    1.6510   -1.8570   -0.5830 O   0  0  0  0  0  0  0  0  0  0  0  0
    0.1180   -0.3320    0.4220 C   0  0  0  0  0  0  0  0  0  0  0  0
   -0.3040    0.1140    1.6490 C   0  0  0  0  0  0  0  0  0  0  0  0
   -1.6250    0.4350    1.9210 C   0  0  0  0  0  0  0  0  0  0  0  0
   -2.5720    0.3000    0.9060 C   0  0  0  0  0  0  0  0  0  0  0  0
   -3.9010    0.6150    1.1580 O   0  0  0  0  0  0  0  0  0  0  0  0
   -2.1690   -0.1470   -0.3320 C   0  0  0  0  0  0  0  0  0  0  0  0
   -3.1070   -0.2880   -1.3590 O   0  0  0  0  0  0  0  0  0  0  0  0
   -0.8500   -0.4590   -0.5760 C   0  0  0  0  0  0  0  0  0  0  0  0
   -2.6020    0.9690    0.2300 O   0  0  0  0  0  0  0  0  0  0  0  0
   -1.3920    0.8770   -0.1780 C   0  0  0  0  0  0  0  0  0  0  0  0
   -0.7740    2.1130   -0.3540 O   0  0  0  0  0  0  0  0  0  0  0  0
   -0.7330   -0.4270   -0.4320 C   0  0  2  0  0  0  0  0  0  0  0  0
   -1.7240   -1.4110   -0.1740 O   0  0  0  0  0  0  0  0  0  0  0  0
    0.3810   -0.7240    0.5640 C   0  0  1  0  0  0  0  0  0  0  0  0
    0.8030   -2.0470    0.2830 O   0  0  0  0  0  0  0  0  0  0  0  0
    1.5340    0.1740    0.4500 C   0  0  0  0  0  0  0  0  0  0  0  0
    2.6610   -0.3240    0.1040 O   0  0  0  0  0  0  0  0  0  0  0  0
    1.5400    1.5310    0.6810 O   0  0  0  0  0  0  0  0  0  0  0  0
   -2.0750   -0.6170    1.3900 O   0  0  0  0  0  0  0  0  0  0  0  0
   -1.8530   -0.2190    0.2380 C   0  0  0  0  0  0  0  0  0  0  0  0
   -2.9010    0.4710   -0.3970 O   0  0  0  0  0  0  0  0  0  0  0  0
   -0.5710   -0.4290   -0.4840 C   0  0  1  0  0  0  0  0  0  0  0  0
   -0.6440    0.1330   -1.7440 O   0  0  0  0  0  0  0  0  0  0  0  0
    0.5660    0.1580    0.3380 C   0  0  1  0  0  0  0  0  0  0  0  0
    0.5520   -0.4720    1.5820 O   0  0  0  0  0  0  0  0  0  0  0  0
    1.8690   -0.0110   -0.3270 C   0  0  0  0  0  0  0  0  0  0  0  0
    2.0650    0.4890   -1.4550 O   0  0  0  0  0  0  0  0  0  0  0  0
    2.8940   -0.7180    0.2700 O   0  0  0  0  0  0  0  0  0  0  0  0
  1  2  1  0
  2  3  1  0
  3  4  1  6
  3  5  1  0
  5  6  2  0
  5 12  1  0
  6  7  1  0
  7  8  2  0
  8  9  1  0
  8 10  1  0
 10 11  1  0
 10 12  2  0
 13 14  2  0
 14 15  1  0
 14 16  1  0
 16 17  1  1
 16 18  1  0
 18 19  1  6
 18 20  1  0
 20 21  2  0
 20 22  1  0
 23 24  2  0
 24 25  1  0
 24 26  1  0
 26 27  1  6
 26 28  1  0
 28 29  1  1
 28 30  1  0
 30 31  2  0
 30 32  1  0
M  CHG  1   1   1
M  END
>  <MODEL>  (28) 
       4

$$$$
../data/sim100/CHEMBL18824.pdb
     RDKit          3D

 12 12  0  0  1  0  0  0  0  0999 V2000
   -3.5770    0.8480   -0.4800 N   0  0  0  0  0  0  0  0  0  0  0  0
   -2.2270    0.4080   -0.6890 C   0  0  0  0  0  0  0  0  0  0  0  0
   -1.3780    0.5800    0.5660 C   0  0  1  0  0  0  0  0  0  0  0  0
   -1.9560   -0.1870    1.5960 O   0  0  0  0  0  0  0  0  0  0  0  0
   -0.0090    0.0760    0.3630 C   0  0  0  0  0  0  0  0  0  0  0  0
    0.2550   -1.2720    0.3050 C   0  0  0  0  0  0  0  0  0  0  0  0
    1.5550   -1.7300    0.1110 C   0  0  0  0  0  0  0  0  0  0  0  0
    2.5870   -0.8250   -0.0230 C   0  0  0  0  0  0  0  0  0  0  0  0
    3.8830   -1.2960   -0.2160 O   0  0  0  0  0  0  0  0  0  0  0  0
    2.3090    0.5240    0.0370 C   0  0  0  0  0  0  0  0  0  0  0  0
    3.3860    1.3930   -0.1040 O   0  0  0  0  0  0  0  0  0  0  0  0
    1.0310    0.9580    0.2270 C   0  0  0  0  0  0  0  0  0  0  0  0
  1  2  1  0
  2  3  1  0
  3  4  1  1
  3  5  1  0
  5  6  2  0
  5 12  1  0
  6  7  1  0
  7  8  2  0
  8  9  1  0
  8 10  1  0
 10 11  1  0
 10 12  2  0
M  CHG  1   1   1
M  END
>  <MODEL>  (29) 
       1

$$$$
../data/sim100/CHEMBL18824.pdb
     RDKit          3D

 12 12  0  0  1  0  0  0  0  0999 V2000
    2.3890    1.2360   -0.4320 N   0  0  0  0  0  0  0  0  0  0  0  0
    2.5790   -0.0260    0.2490 C   0  0  0  0  0  0  0  0  0  0  0  0
    1.5650   -0.9970   -0.3260 C   0  0  1  0  0  0  0  0  0  0  0  0
    1.6770   -2.2600    0.2820 O   0  0  0  0  0  0  0  0  0  0  0  0
    0.1880   -0.5040   -0.2330 C   0  0  0  0  0  0  0  0  0  0  0  0
   -0.3900    0.0610   -1.3510 C   0  0  0  0  0  0  0  0  0  0  0  0
   -1.6670    0.5450   -1.3510 C   0  0  0  0  0  0  0  0  0  0  0  0
   -2.4050    0.4630   -0.1810 C   0  0  0  0  0  0  0  0  0  0  0  0
   -3.6910    0.9430   -0.1570 O   0  0  0  0  0  0  0  0  0  0  0  0
   -1.8670   -0.0920    0.9580 C   0  0  0  0  0  0  0  0  0  0  0  0
   -2.6170   -0.1740    2.1430 O   0  0  0  0  0  0  0  0  0  0  0  0
   -0.5730   -0.5720    0.9220 C   0  0  0  0  0  0  0  0  0  0  0  0
  1  2  1  0
  2  3  1  0
  3  4  1  1
  3  5  1  0
  5  6  2  0
  5 12  1  0
  6  7  1  0
  7  8  2  0
  8  9  1  0
  8 10  1  0
 10 11  1  0
 10 12  2  0
M  CHG  1   1   1
M  END
>  <MODEL>  (30) 
       2

$$$$
../data/sim100/CHEMBL85811.pdb
     RDKit          3D

 16 17  0  0  0  0  0  0  0  0999 V2000
    4.8820    0.7580   -0.5300 N   0  0  0  0  0  0  0  0  0  0  0  0
    3.4700    0.5380   -0.3510 C   0  0  0  0  0  0  0  0  0  0  0  0
    2.6040    1.2870   -1.1550 C   0  0  0  0  0  0  0  0  0  0  0  0
    1.2590    1.0760   -0.9830 C   0  0  0  0  0  0  0  0  0  0  0  0
    0.7170    0.1860   -0.0820 C   0  0  0  0  0  0  0  0  0  0  0  0
   -0.7200   -0.0270    0.0890 C   0  0  0  0  0  0  0  0  0  0  0  0
   -1.2610   -0.3800    1.3090 C   0  0  0  0  0  0  0  0  0  0  0  0
   -2.6120   -0.5840    1.4860 C   0  0  0  0  0  0  0  0  0  0  0  0
   -3.5050   -0.4450    0.4430 C   0  0  0  0  0  0  0  0  0  0  0  0
   -4.9000   -0.6540    0.6180 N   0  0  0  0  0  0  0  0  0  0  0  0
   -2.9630   -0.0900   -0.7810 C   0  0  0  0  0  0  0  0  0  0  0  0
   -3.8460    0.0550   -1.8430 O   0  0  0  0  0  0  0  0  0  0  0  0
   -1.6100    0.1140   -0.9560 C   0  0  0  0  0  0  0  0  0  0  0  0
    1.6090   -0.5350    0.6940 C   0  0  0  0  0  0  0  0  0  0  0  0
    2.9810   -0.3640    0.5650 C   0  0  0  0  0  0  0  0  0  0  0  0
    3.8790   -1.0820    1.3380 O   0  0  0  0  0  0  0  0  0  0  0  0
  1  2  1  0
  2  3  2  0
  2 15  1  0
  3  4  1  0
  4  5  2  0
  5  6  1  0
  5 14  1  0
  6  7  2  0
  6 13  1  0
  7  8  1  0
  8  9  2  0
  9 10  1  0
  9 11  1  0
 11 12  1  0
 11 13  2  0
 14 15  2  0
 15 16  1  0
M  END
>  <MODEL>  (31) 
       1

$$$$
../data/sim100/CHEMBL85811.pdb
     RDKit          3D

 16 17  0  0  0  0  0  0  0  0999 V2000
   -5.0180    0.1060    0.2020 N   0  0  0  0  0  0  0  0  0  0  0  0
   -3.5980   -0.0110    0.1860 C   0  0  0  0  0  0  0  0  0  0  0  0
   -2.9560   -1.1050    0.7310 C   0  0  0  0  0  0  0  0  0  0  0  0
   -1.5740   -1.1900    0.6990 C   0  0  0  0  0  0  0  0  0  0  0  0
   -0.7850   -0.2020    0.1310 C   0  0  0  0  0  0  0  0  0  0  0  0
    0.6650   -0.3070    0.1060 C   0  0  0  0  0  0  0  0  0  0  0  0
    1.3510   -1.4970    0.0190 C   0  0  0  0  0  0  0  0  0  0  0  0
    2.7480   -1.5260   -0.0010 C   0  0  0  0  0  0  0  0  0  0  0  0
    3.4850   -0.3620    0.0680 C   0  0  0  0  0  0  0  0  0  0  0  0
    4.9150   -0.4140    0.0480 N   0  0  0  0  0  0  0  0  0  0  0  0
    2.8010    0.8300    0.1550 C   0  0  0  0  0  0  0  0  0  0  0  0
    3.5350    2.0060    0.2240 O   0  0  0  0  0  0  0  0  0  0  0  0
    1.4030    0.8520    0.1740 C   0  0  0  0  0  0  0  0  0  0  0  0
   -1.4280    0.8930   -0.4150 C   0  0  0  0  0  0  0  0  0  0  0  0
   -2.8230    0.9850   -0.3860 C   0  0  0  0  0  0  0  0  0  0  0  0
   -3.4810    2.0650   -0.9230 O   0  0  0  0  0  0  0  0  0  0  0  0
  1  2  1  0
  2  3  2  0
  2 15  1  0
  3  4  1  0
  4  5  2  0
  5  6  1  0
  5 14  1  0
  6  7  2  0
  6 13  1  0
  7  8  1  0
  8  9  2  0
  9 10  1  0
  9 11  1  0
 11 12  1  0
 11 13  2  0
 14 15  2  0
 15 16  1  0
M  END
>  <MODEL>  (32) 
       2

$$$$
../data/sim100/CHEMBL2074780.pdb
     RDKit          3D

 13 13  0  0  1  0  0  0  0  0999 V2000
   -3.4310    0.2480   -1.2490 O   0  0  0  0  0  0  0  0  0  0  0  0
   -2.7200   -0.0440   -0.2480 C   0  0  0  0  0  0  0  0  0  0  0  0
   -3.0130   -1.2200    0.4170 O   0  0  0  0  0  0  0  0  0  0  0  0
   -1.6450    0.8640    0.1490 C   0  0  2  0  0  0  0  0  0  0  0  0
   -1.6290    2.0370   -0.6180 O   0  0  0  0  0  0  0  0  0  0  0  0
   -0.2950    0.2780    0.0880 C   0  0  0  0  0  0  0  0  0  0  0  0
   -0.1270   -1.0480   -0.1910 C   0  0  0  0  0  0  0  0  0  0  0  0
    1.1630   -1.5890   -0.2410 C   0  0  0  0  0  0  0  0  0  0  0  0
    2.2580   -0.8100   -0.0140 C   0  0  0  0  0  0  0  0  0  0  0  0
    3.5410   -1.3320   -0.0600 O   0  0  0  0  0  0  0  0  0  0  0  0
    2.1040    0.5210    0.2670 C   0  0  0  0  0  0  0  0  0  0  0  0
    3.2040    1.3370    0.5020 O   0  0  0  0  0  0  0  0  0  0  0  0
    0.8410    1.0540    0.3160 C   0  0  0  0  0  0  0  0  0  0  0  0
  1  2  2  0
  2  3  1  0
  2  4  1  0
  4  5  1  6
  4  6  1  0
  6  7  2  0
  6 13  1  0
  7  8  1  0
  8  9  2  0
  9 10  1  0
  9 11  1  0
 11 12  1  0
 11 13  2  0
M  END
>  <MODEL>  (33) 
       1

$$$$
../data/sim100/CHEMBL2074780.pdb
     RDKit          3D

 13 13  0  0  1  0  0  0  0  0999 V2000
    3.3770    0.4130   -1.7290 O   0  0  0  0  0  0  0  0  0  0  0  0
    2.6740    0.4090   -0.6650 C   0  0  0  0  0  0  0  0  0  0  0  0
    2.7380    1.5780    0.0860 O   0  0  0  0  0  0  0  0  0  0  0  0
    1.8740   -0.7690   -0.3000 C   0  0  2  0  0  0  0  0  0  0  0  0
    2.1930   -1.8010   -1.1940 O   0  0  0  0  0  0  0  0  0  0  0  0
    0.4380   -0.4900   -0.2900 C   0  0  0  0  0  0  0  0  0  0  0  0
   -0.4680   -1.5480   -0.1510 C   0  0  0  0  0  0  0  0  0  0  0  0
   -1.7990   -1.2860   -0.1510 C   0  0  0  0  0  0  0  0  0  0  0  0
   -2.3100   -0.0080   -0.2850 C   0  0  0  0  0  0  0  0  0  0  0  0
   -3.6810    0.1730   -0.2750 O   0  0  0  0  0  0  0  0  0  0  0  0
   -1.4250    1.0330   -0.4230 C   0  0  0  0  0  0  0  0  0  0  0  0
   -1.8830    2.3390   -0.5600 O   0  0  0  0  0  0  0  0  0  0  0  0
   -0.0400    0.7840   -0.4250 C   0  0  0  0  0  0  0  0  0  0  0  0
  1  2  2  0
  2  3  1  0
  2  4  1  0
  4  5  1  6
  4  6  1  0
  6  7  2  0
  6 13  1  0
  7  8  1  0
  8  9  2  0
  9 10  1  0
  9 11  1  0
 11 12  1  0
 11 13  2  0
M  END
>  <MODEL>  (34) 
       2

$$$$
../data/sim100/CHEMBL164989.pdb
     RDKit          3D

 11 11  0  0  0  0  0  0  0  0999 V2000
   -2.7360   -0.4810    0.2780 N   0  0  0  0  0  0  0  0  0  0  0  0
   -1.3200   -0.3220    0.1590 C   0  0  0  0  0  0  0  0  0  0  0  0
   -0.4640   -1.4000    0.4110 C   0  0  0  0  0  0  0  0  0  0  0  0
    0.8950   -1.2760    0.3040 C   0  0  0  0  0  0  0  0  0  0  0  0
    1.4600   -0.0710   -0.0580 C   0  0  0  0  0  0  0  0  0  0  0  0
    2.8500    0.0850   -0.1750 N   0  0  0  0  0  0  0  0  0  0  0  0
    3.6130   -0.8820    0.0520 O   0  0  0  0  0  0  0  0  0  0  0  0
    3.4420    1.2730   -0.5340 O   0  0  0  0  0  0  0  0  0  0  0  0
    0.6190    0.9970   -0.3080 C   0  0  0  0  0  0  0  0  0  0  0  0
   -0.7460    0.8760   -0.2030 C   0  0  0  0  0  0  0  0  0  0  0  0
   -1.5670    1.9560   -0.4570 O   0  0  0  0  0  0  0  0  0  0  0  0
  1  2  1  0
  2  3  2  0
  2 10  1  0
  3  4  1  0
  4  5  2  0
  5  6  1  0
  5  9  1  0
  6  7  2  0
  6  8  1  0
  9 10  2  0
 10 11  1  0
M  CHG  2   6   1   8  -1
M  END
$$$$
../data/sim100/CHEMBL2311152.pdb
     RDKit          3D

 12 12  0  0  1  0  0  0  0  0999 V2000
   -1.5240    0.7560    0.1680 C   0  0  1  0  0  0  0  0  0  0  0  0
   -1.6060    1.9730   -0.5670 O   0  0  0  0  0  0  0  0  0  0  0  0
   -2.5910   -0.1350   -0.3440 C   0  0  0  0  0  0  0  0  0  0  0  0
   -2.6300   -1.3780    0.3570 N   0  0  0  0  0  0  0  0  0  0  0  0
   -0.1380    0.2690   -0.0000 C   0  0  0  0  0  0  0  0  0  0  0  0
    0.1820   -1.0100   -0.3670 C   0  0  0  0  0  0  0  0  0  0  0  0
    1.5110   -1.4330   -0.5110 C   0  0  0  0  0  0  0  0  0  0  0  0
    2.5430   -0.5540   -0.2810 C   0  0  0  0  0  0  0  0  0  0  0  0
    3.8790   -0.9380   -0.4130 O   0  0  0  0  0  0  0  0  0  0  0  0
    2.2470    0.7220    0.0840 C   0  0  0  0  0  0  0  0  0  0  0  0
    3.3010    1.6130    0.3160 O   0  0  0  0  0  0  0  0  0  0  0  0
    0.9450    1.1290    0.2220 C   0  0  0  0  0  0  0  0  0  0  0  0
  1  2  1  6
  1  3  1  0
  1  5  1  0
  3  4  1  0
  5  6  2  0
  5 12  1  0
  6  7  1  0
  7  8  2  0
  8  9  1  0
  8 10  1  0
 10 11  1  0
 10 12  2  0
M  CHG  1   4   1
M  END
$$$$
../data/sim100/CHEMBL1160982.pdb
     RDKit          3D

 13 13  0  0  1  0  0  0  0  0999 V2000
   -3.3600    0.4970    0.1670 C   0  0  0  0  0  0  0  0  0  0  0  0
   -1.9180    0.1450    0.4570 C   0  0  1  0  0  0  0  0  0  0  0  0
   -1.7600   -1.1600    1.0400 N   0  0  0  0  0  0  0  0  0  0  0  0
   -1.0860    0.2610   -0.8190 C   0  0  1  0  0  0  0  0  0  0  0  0
   -1.2570    1.5330   -1.3620 O   0  0  0  0  0  0  0  0  0  0  0  0
    0.3430   -0.0200   -0.5420 C   0  0  0  0  0  0  0  0  0  0  0  0
    0.9020   -1.2320   -0.8920 C   0  0  0  0  0  0  0  0  0  0  0  0
    2.2520   -1.4700   -0.6180 C   0  0  0  0  0  0  0  0  0  0  0  0
    3.0370   -0.5150   -0.0030 C   0  0  0  0  0  0  0  0  0  0  0  0
    4.3950   -0.7460    0.2770 O   0  0  0  0  0  0  0  0  0  0  0  0
    2.4740    0.7020    0.3490 C   0  0  0  0  0  0  0  0  0  0  0  0
    3.2330    1.6690    0.9620 O   0  0  0  0  0  0  0  0  0  0  0  0
    1.1390    0.9240    0.0720 C   0  0  0  0  0  0  0  0  0  0  0  0
  2  1  1  6
  2  3  1  0
  2  4  1  0
  4  5  1  1
  4  6  1  0
  6  7  2  0
  6 13  1  0
  7  8  1  0
  8  9  2  0
  9 10  1  0
  9 11  1  0
 11 12  1  0
 11 13  2  0
M  CHG  1   3   1
M  END
>  <MODEL>  (37) 
       1

$$$$
../data/sim100/CHEMBL1160982.pdb
     RDKit          3D

 13 13  0  0  1  0  0  0  0  0999 V2000
   -1.9670    0.7660    1.2670 C   0  0  0  0  0  0  0  0  0  0  0  0
   -2.2120   -0.2730    0.2040 C   0  0  1  0  0  0  0  0  0  0  0  0
   -2.3420    0.3160   -1.1130 N   0  0  0  0  0  0  0  0  0  0  0  0
   -1.0620   -1.2780    0.2350 C   0  0  1  0  0  0  0  0  0  0  0  0
   -1.3440   -2.2720   -0.7020 O   0  0  0  0  0  0  0  0  0  0  0  0
    0.2280   -0.6160   -0.0710 C   0  0  0  0  0  0  0  0  0  0  0  0
    0.5080   -0.2490   -1.3640 C   0  0  0  0  0  0  0  0  0  0  0  0
    1.7190    0.3720   -1.6460 C   0  0  0  0  0  0  0  0  0  0  0  0
    2.6400    0.6260   -0.6610 C   0  0  0  0  0  0  0  0  0  0  0  0
    3.8520    1.2480   -0.9480 O   0  0  0  0  0  0  0  0  0  0  0  0
    2.3460    0.2520    0.6330 C   0  0  0  0  0  0  0  0  0  0  0  0
    3.2830    0.5110    1.6350 O   0  0  0  0  0  0  0  0  0  0  0  0
    1.1350   -0.3720    0.9310 C   0  0  0  0  0  0  0  0  0  0  0  0
  2  1  1  1
  2  3  1  0
  2  4  1  0
  4  5  1  6
  4  6  1  0
  6  7  2  0
  6 13  1  0
  7  8  1  0
  8  9  2  0
  9 10  1  0
  9 11  1  0
 11 12  1  0
 11 13  2  0
M  CHG  1   3   1
M  END
>  <MODEL>  (38) 
       2

$$$$
../data/sim100/CHEMBL1350643.pdb
     RDKit          3D

 17 18  0  0  0  0  0  0  0  0999 V2000
    4.5970    1.5020   -1.1170 N   0  0  0  0  0  0  0  0  0  0  0  0
    3.4940    0.8950   -0.4560 C   0  0  0  0  0  0  0  0  0  0  0  0
    2.8020    1.5500    0.5450 C   0  0  0  0  0  0  0  0  0  0  0  0
    1.7290    0.9850    1.2020 C   0  0  0  0  0  0  0  0  0  0  0  0
    1.2920   -0.2840    0.8800 C   0  0  0  0  0  0  0  0  0  0  0  0
    0.1420   -0.9270    1.5630 C   0  0  0  0  0  0  0  0  0  0  0  0
   -1.1420   -0.6580    0.9130 C   0  0  0  0  0  0  0  0  0  0  0  0
   -1.8490    0.4690    1.3330 C   0  0  0  0  0  0  0  0  0  0  0  0
   -3.0670    0.7890    0.7690 C   0  0  0  0  0  0  0  0  0  0  0  0
   -3.5790   -0.0220   -0.2210 C   0  0  0  0  0  0  0  0  0  0  0  0
   -4.8260    0.3240   -0.7850 N   0  0  0  0  0  0  0  0  0  0  0  0
   -2.8920   -1.1280   -0.6380 C   0  0  0  0  0  0  0  0  0  0  0  0
   -3.4310   -1.9400   -1.6470 O   0  0  0  0  0  0  0  0  0  0  0  0
   -1.6850   -1.4430   -0.0770 C   0  0  0  0  0  0  0  0  0  0  0  0
    1.9820   -0.9380   -0.1190 C   0  0  0  0  0  0  0  0  0  0  0  0
    3.0550   -0.3740   -0.7760 C   0  0  0  0  0  0  0  0  0  0  0  0
    3.7020   -1.0950   -1.7740 O   0  0  0  0  0  0  0  0  0  0  0  0
  1  2  1  0
  2  3  2  0
  2 16  1  0
  3  4  1  0
  4  5  2  0
  5  6  1  0
  5 15  1  0
  6  7  1  0
  7  8  2  0
  7 14  1  0
  8  9  1  0
  9 10  2  0
 10 11  1  0
 10 12  1  0
 12 13  1  0
 12 14  2  0
 15 16  2  0
 16 17  1  0
M  END
>  <MODEL>  (39) 
       1

$$$$
../data/sim100/CHEMBL1350643.pdb
     RDKit          3D

 17 18  0  0  0  0  0  0  0  0999 V2000
    4.6110   -1.3790    0.1740 N   0  0  0  0  0  0  0  0  0  0  0  0
    3.4330   -0.6570   -0.1250 C   0  0  0  0  0  0  0  0  0  0  0  0
    2.6650   -0.9250   -1.2420 C   0  0  0  0  0  0  0  0  0  0  0  0
    1.5120   -0.2000   -1.5130 C   0  0  0  0  0  0  0  0  0  0  0  0
    1.1370    0.8030   -0.6460 C   0  0  0  0  0  0  0  0  0  0  0  0
   -0.1090    1.5850   -0.9400 C   0  0  0  0  0  0  0  0  0  0  0  0
   -1.2940    0.9470   -0.3100 C   0  0  0  0  0  0  0  0  0  0  0  0
   -1.6870    1.2780    0.9530 C   0  0  0  0  0  0  0  0  0  0  0  0
   -2.8020    0.6570    1.5050 C   0  0  0  0  0  0  0  0  0  0  0  0
   -3.4850   -0.2810    0.7570 C   0  0  0  0  0  0  0  0  0  0  0  0
   -4.6230   -0.9080    1.3340 N   0  0  0  0  0  0  0  0  0  0  0  0
   -3.0840   -0.6140   -0.5210 C   0  0  0  0  0  0  0  0  0  0  0  0
   -3.7900   -1.5650   -1.2570 O   0  0  0  0  0  0  0  0  0  0  0  0
   -1.9790    0.0120   -1.0490 C   0  0  0  0  0  0  0  0  0  0  0  0
    1.9190    1.0540    0.4630 C   0  0  0  0  0  0  0  0  0  0  0  0
    3.0670    0.3470    0.7520 C   0  0  0  0  0  0  0  0  0  0  0  0
    3.8320    0.6410    1.8970 O   0  0  0  0  0  0  0  0  0  0  0  0
  1  2  1  0
  2  3  2  0
  2 16  1  0
  3  4  1  0
  4  5  2  0
  5  6  1  0
  5 15  1  0
  6  7  1  0
  7  8  2  0
  7 14  1  0
  8  9  1  0
  9 10  2  0
 10 11  1  0
 10 12  1  0
 12 13  1  0
 12 14  2  0
 15 16  2  0
 16 17  1  0
M  END
>  <MODEL>  (40) 
       2

$$$$
../data/sim100/CHEMBL1350643.pdb
     RDKit          3D

 17 18  0  0  0  0  0  0  0  0999 V2000
   -4.7800    0.7140   -0.6820 N   0  0  0  0  0  0  0  0  0  0  0  0
   -3.5550    0.1570   -0.2620 C   0  0  0  0  0  0  0  0  0  0  0  0
   -2.9530    0.4770    0.9370 C   0  0  0  0  0  0  0  0  0  0  0  0
   -1.7510   -0.0880    1.3180 C   0  0  0  0  0  0  0  0  0  0  0  0
   -1.1010   -1.0010    0.5090 C   0  0  0  0  0  0  0  0  0  0  0  0
    0.1730   -1.5660    0.9720 C   0  0  0  0  0  0  0  0  0  0  0  0
    1.3460   -0.7510    0.5330 C   0  0  0  0  0  0  0  0  0  0  0  0
    2.0000   -0.9810   -0.6610 C   0  0  0  0  0  0  0  0  0  0  0  0
    3.0920   -0.2230   -1.0720 C   0  0  0  0  0  0  0  0  0  0  0  0
    3.5420    0.7970   -0.2600 C   0  0  0  0  0  0  0  0  0  0  0  0
    4.6570    1.5750   -0.6740 N   0  0  0  0  0  0  0  0  0  0  0  0
    2.9080    1.0500    0.9380 C   0  0  0  0  0  0  0  0  0  0  0  0
    3.3740    2.0790    1.7400 O   0  0  0  0  0  0  0  0  0  0  0  0
    1.8200    0.2770    1.3230 C   0  0  0  0  0  0  0  0  0  0  0  0
   -1.7040   -1.3220   -0.6910 C   0  0  0  0  0  0  0  0  0  0  0  0
   -2.9090   -0.7540   -1.0710 C   0  0  0  0  0  0  0  0  0  0  0  0
   -3.4560   -1.1360   -2.3110 O   0  0  0  0  0  0  0  0  0  0  0  0
  1  2  1  0
  2  3  2  0
  2 16  1  0
  3  4  1  0
  4  5  2  0
  5  6  1  0
  5 15  1  0
  6  7  1  0
  7  8  2  0
  7 14  1  0
  8  9  1  0
  9 10  2  0
 10 11  1  0
 10 12  1  0
 12 13  1  0
 12 14  2  0
 15 16  2  0
 16 17  1  0
M  END
>  <MODEL>  (41) 
       3

$$$$
../data/sim100/CHEMBL1612659.pdb
     RDKit          3D

 14 13  0  0  1  0  0  0  0  0999 V2000
   -2.3030   -1.2980   -0.6300 C   0  0  0  0  0  0  0  0  0  0  0  0
   -2.0780   -0.4310    0.6050 C   0  0  2  0  0  0  0  0  0  0  0  0
   -3.3910    0.2140    0.8440 N   0  0  0  0  0  0  0  0  0  0  0  0
   -1.1290    0.7050    0.2990 C   0  0  1  0  0  0  0  0  0  0  0  0
   -1.1190    1.6180    1.3800 O   0  0  0  0  0  0  0  0  0  0  0  0
    0.2560    0.2820    0.0120 C   0  0  0  0  0  0  0  0  0  0  0  0
    0.6310   -1.0110   -0.0400 C   0  0  0  0  0  0  0  0  0  0  0  0
    1.9570   -1.3340   -0.3320 C   0  0  0  0  0  0  0  0  0  0  0  0
    2.8720   -0.3390   -0.5640 C   0  0  0  0  0  0  0  0  0  0  0  0
    4.2150   -0.6380   -0.8600 O   0  0  0  0  0  0  0  0  0  0  0  0
    2.5040    0.9820   -0.5140 C   0  0  0  0  0  0  0  0  0  0  0  0
    3.4470    1.9710   -0.7520 O   0  0  0  0  0  0  0  0  0  0  0  0
    1.1870    1.2730   -0.2240 C   0  0  0  0  0  0  0  0  0  0  0  0
    0.6920    0.0000    0.0000 Cl  0  0  0  0  0  0  0  0  0  0  0  0
  2  1  1  6
  2  3  1  0
  2  4  1  0
  4  5  1  1
  4  6  1  0
  6  7  2  0
  6 13  1  0
  7  8  1  0
  8  9  2  0
  9 10  1  0
  9 11  1  0
 11 12  1  0
 11 13  2  0
M  CHG  1   3   1
M  END
>  <MODEL>  (42) 
       1

$$$$
../data/sim100/CHEMBL1612659.pdb
     RDKit          3D

 14 13  0  0  1  0  0  0  0  0999 V2000
   -2.6010   -0.7030   -0.5020 C   0  0  0  0  0  0  0  0  0  0  0  0
   -2.2490    0.1410    0.7270 C   0  0  1  0  0  0  0  0  0  0  0  0
   -2.0610   -0.6460    1.8920 N   0  0  0  0  0  0  0  0  0  0  0  0
   -1.1810    1.1190    0.4000 C   0  0  2  0  0  0  0  0  0  0  0  0
   -1.5900    1.7850   -0.7820 O   0  0  0  0  0  0  0  0  0  0  0  0
    0.1470    0.5770    0.1190 C   0  0  0  0  0  0  0  0  0  0  0  0
    1.0310    1.4640   -0.5110 C   0  0  0  0  0  0  0  0  0  0  0  0
    2.3120    1.1090   -0.8430 C   0  0  0  0  0  0  0  0  0  0  0  0
    2.7670   -0.1570   -0.5580 C   0  0  0  0  0  0  0  0  0  0  0  0
    4.0530   -0.5670   -0.8730 O   0  0  0  0  0  0  0  0  0  0  0  0
    1.9110   -1.0340    0.0570 C   0  0  0  0  0  0  0  0  0  0  0  0
    2.3270   -2.3200    0.3630 O   0  0  0  0  0  0  0  0  0  0  0  0
    0.6040   -0.6700    0.3960 C   0  0  0  0  0  0  0  0  0  0  0  0
    0.6930    0.0000    0.0000 Cl  0  0  0  0  0  0  0  0  0  0  0  0
  2  1  1  6
  2  3  1  0
  2  4  1  0
  4  5  1  6
  4  6  1  0
  6  7  2  0
  6 13  1  0
  7  8  1  0
  8  9  2  0
  9 10  1  0
  9 11  1  0
 11 12  1  0
 11 13  2  0
M  CHG  1   3   1
M  END
>  <MODEL>  (43) 
       2

$$$$
../data/sim100/CHEMBL1462.pdb
     RDKit          3D

 11 11  0  0  0  0  0  0  0  0999 V2000
   -2.9140    0.8950    0.1850 N   0  0  0  0  0  0  0  0  0  0  0  0
   -1.5430    0.5260    0.0860 C   0  0  0  0  0  0  0  0  0  0  0  0
   -0.5380    1.4670   -0.0230 C   0  0  0  0  0  0  0  0  0  0  0  0
    0.7980    1.1340   -0.1210 C   0  0  0  0  0  0  0  0  0  0  0  0
    1.1900   -0.1890   -0.1120 C   0  0  0  0  0  0  0  0  0  0  0  0
    2.5940   -0.5610   -0.2140 C   0  0  0  0  0  0  0  0  0  0  0  0
    2.9040   -1.7730   -0.2020 O   0  0  0  0  0  0  0  0  0  0  0  0
    3.5810    0.4040   -0.3230 O   0  0  0  0  0  0  0  0  0  0  0  0
    0.1940   -1.1380   -0.0030 C   0  0  0  0  0  0  0  0  0  0  0  0
   -1.1410   -0.7960    0.0940 C   0  0  0  0  0  0  0  0  0  0  0  0
   -2.1190   -1.7720    0.2020 O   0  0  0  0  0  0  0  0  0  0  0  0
  1  2  1  0
  2  3  2  0
  2 10  1  0
  3  4  1  0
  4  5  2  0
  5  6  1  0
  5  9  1  0
  6  7  2  0
  6  8  1  0
  9 10  2  0
 10 11  1  0
M  END
$$$$
../data/sim100/CHEMBL3273169.pdb
     RDKit          3D

 13 12  0  0  1  0  0  0  0  0999 V2000
    0.7600    0.0000    0.0000 Br  0  0  0  0  0  0  0  0  0  0  0  0
    2.4230    1.3420    0.4940 N   0  0  0  0  0  0  0  0  0  0  0  0
    2.3910    0.3360   -0.5180 C   0  0  0  0  0  0  0  0  0  0  0  0
    1.5540   -0.8530   -0.2490 C   0  0  2  0  0  0  0  0  0  0  0  0
    1.6780   -1.7480   -1.3260 O   0  0  0  0  0  0  0  0  0  0  0  0
    0.1270   -0.5700   -0.0820 C   0  0  0  0  0  0  0  0  0  0  0  0
   -0.7720   -1.6360    0.0020 C   0  0  0  0  0  0  0  0  0  0  0  0
   -2.1060   -1.4520    0.1460 C   0  0  0  0  0  0  0  0  0  0  0  0
   -2.5900   -0.1650    0.2120 C   0  0  0  0  0  0  0  0  0  0  0  0
   -3.9480    0.0630    0.3600 O   0  0  0  0  0  0  0  0  0  0  0  0
   -1.7360    0.9090    0.1340 C   0  0  0  0  0  0  0  0  0  0  0  0
   -2.2750    2.1860    0.2060 O   0  0  0  0  0  0  0  0  0  0  0  0
   -0.3610    0.6950   -0.0150 C   0  0  0  0  0  0  0  0  0  0  0  0
  2  3  1  0
  3  4  1  0
  4  5  1  6
  4  6  1  0
  6  7  2  0
  6 13  1  0
  7  8  1  0
  8  9  2  0
  9 10  1  0
  9 11  1  0
 11 12  1  0
 11 13  2  0
M  CHG  1   2   1
M  END
>  <MODEL>  (45) 
       1

$$$$
../data/sim100/CHEMBL3273169.pdb
     RDKit          3D

 13 12  0  0  1  0  0  0  0  0999 V2000
    0.7600    0.0000    0.0000 Br  0  0  0  0  0  0  0  0  0  0  0  0
   -2.5350    1.2120   -0.6300 N   0  0  0  0  0  0  0  0  0  0  0  0
   -2.6060   -0.0090    0.1020 C   0  0  0  0  0  0  0  0  0  0  0  0
   -1.4500   -0.8780   -0.2370 C   0  0  2  0  0  0  0  0  0  0  0  0
   -1.5790   -2.0930    0.4700 O   0  0  0  0  0  0  0  0  0  0  0  0
   -0.1140   -0.3220    0.0150 C   0  0  0  0  0  0  0  0  0  0  0  0
    0.0950    0.9620    0.4390 C   0  0  0  0  0  0  0  0  0  0  0  0
    1.3940    1.4390    0.6520 C   0  0  0  0  0  0  0  0  0  0  0  0
    2.4870    0.6310    0.4410 C   0  0  0  0  0  0  0  0  0  0  0  0
    3.7900    1.0660    0.6410 O   0  0  0  0  0  0  0  0  0  0  0  0
    2.2920   -0.6570    0.0170 C   0  0  0  0  0  0  0  0  0  0  0  0
    3.3870   -1.5130   -0.2090 O   0  0  0  0  0  0  0  0  0  0  0  0
    1.0080   -1.1100   -0.1880 C   0  0  0  0  0  0  0  0  0  0  0  0
  2  3  1  0
  3  4  1  0
  4  5  1  1
  4  6  1  0
  6  7  2  0
  6 13  1  0
  7  8  1  0
  8  9  2  0
  9 10  1  0
  9 11  1  0
 11 12  1  0
 11 13  2  0
M  CHG  1   2   1
M  END
>  <MODEL>  (46) 
       2

$$$$
../data/sim100/CHEMBL1437.pdb
     RDKit          3D

 12 12  0  0  1  0  0  0  0  0999 V2000
   -2.5640    0.5870   -0.9010 N   0  0  0  0  0  0  0  0  0  0  0  0
   -2.4050   -0.7200   -0.2690 C   0  0  0  0  0  0  0  0  0  0  0  0
   -1.5390   -0.6000    0.9850 C   0  0  2  0  0  0  0  0  0  0  0  0
   -2.0990    0.2540    1.9080 O   0  0  0  0  0  0  0  0  0  0  0  0
   -0.1520   -0.2360    0.6060 C   0  0  0  0  0  0  0  0  0  0  0  0
    0.1680    1.0730    0.3270 C   0  0  0  0  0  0  0  0  0  0  0  0
    1.4540    1.4130   -0.0240 C   0  0  0  0  0  0  0  0  0  0  0  0
    2.4500    0.4360   -0.1020 C   0  0  0  0  0  0  0  0  0  0  0  0
    3.7460    0.7650   -0.4540 O   0  0  0  0  0  0  0  0  0  0  0  0
    2.1470   -0.8660    0.1710 C   0  0  0  0  0  0  0  0  0  0  0  0
    3.1110   -1.8620    0.1030 O   0  0  0  0  0  0  0  0  0  0  0  0
    0.8530   -1.1920    0.5220 C   0  0  0  0  0  0  0  0  0  0  0  0
  1  2  1  0
  2  3  1  0
  3  4  1  1
  3  5  1  0
  5  6  2  0
  5 12  1  0
  6  7  1  0
  7  8  2  0
  8  9  1  0
  8 10  1  0
 10 11  1  0
 10 12  2  0
M  CHG  1   1   1
M  END
>  <MODEL>  (47) 
       1

$$$$
../data/sim100/CHEMBL1437.pdb
     RDKit          3D

 12 12  0  0  1  0  0  0  0  0999 V2000
   -2.6200    0.0020    1.1170 N   0  0  0  0  0  0  0  0  0  0  0  0
   -2.4560   -0.6150   -0.1460 C   0  0  0  0  0  0  0  0  0  0  0  0
   -1.4820    0.0980   -1.0450 C   0  0  2  0  0  0  0  0  0  0  0  0
   -1.3840   -0.5760   -2.2590 O   0  0  0  0  0  0  0  0  0  0  0  0
   -0.1370    0.2120   -0.4660 C   0  0  0  0  0  0  0  0  0  0  0  0
    0.3020    1.4190    0.0810 C   0  0  0  0  0  0  0  0  0  0  0  0
    1.5420    1.5740    0.6300 C   0  0  0  0  0  0  0  0  0  0  0  0
    2.4240    0.5070    0.6590 C   0  0  0  0  0  0  0  0  0  0  0  0
    3.6720    0.6650    1.2120 O   0  0  0  0  0  0  0  0  0  0  0  0
    2.0260   -0.7010    0.1270 C   0  0  0  0  0  0  0  0  0  0  0  0
    2.9460   -1.7560    0.1750 O   0  0  0  0  0  0  0  0  0  0  0  0
    0.7710   -0.8340   -0.4210 C   0  0  0  0  0  0  0  0  0  0  0  0
  1  2  1  0
  2  3  1  0
  3  4  1  6
  3  5  1  0
  5  6  2  0
  5 12  1  0
  6  7  1  0
  7  8  2  0
  8  9  1  0
  8 10  1  0
 10 11  1  0
 10 12  2  0
M  CHG  1   1   1
M  END
>  <MODEL>  (48) 
       2

$$$$
../data/sim100/CHEMBL270197.pdb
     RDKit          3D

  9  9  0  0  0  0  0  0  0  0999 V2000
   -2.3800   -0.9430    0.0420 N   0  0  0  0  0  0  0  0  0  0  0  0
   -1.0160   -0.5360   -0.0430 C   0  0  0  0  0  0  0  0  0  0  0  0
    0.0040   -1.4020   -0.3790 C   0  0  0  0  0  0  0  0  0  0  0  0
    1.3170   -0.9830   -0.4550 C   0  0  0  0  0  0  0  0  0  0  0  0
    1.6680    0.3270   -0.1970 C   0  0  0  0  0  0  0  0  0  0  0  0
    2.9910    0.7030   -0.2840 O   0  0  0  0  0  0  0  0  0  0  0  0
    0.6570    1.2030    0.1400 C   0  0  0  0  0  0  0  0  0  0  0  0
   -0.6610    0.7740    0.2150 C   0  0  0  0  0  0  0  0  0  0  0  0
   -1.7030    1.6510    0.5560 O   0  0  0  0  0  0  0  0  0  0  0  0
  1  2  1  0
  2  3  2  0
  2  8  1  0
  3  4  1  0
  4  5  2  0
  5  6  1  0
  5  7  1  0
  7  8  2  0
  8  9  1  0
M  END
$$$$
../data/sim100/CHEMBL3248963.pdb
     RDKit          3D

 13 12  0  0  1  0  0  0  0  0999 V2000
    0.6900    0.0000    0.0000 Cl  0  0  0  0  0  0  0  0  0  0  0  0
   -3.7930   -0.1410    0.4920 N   0  0  0  0  0  0  0  0  0  0  0  0
   -2.4590   -0.6360    0.2620 C   0  0  0  0  0  0  0  0  0  0  0  0
   -1.4700    0.4850    0.3430 C   0  0  2  0  0  0  0  0  0  0  0  0
   -1.8290    1.4180   -0.6540 O   0  0  0  0  0  0  0  0  0  0  0  0
   -0.0860    0.1010    0.1040 C   0  0  0  0  0  0  0  0  0  0  0  0
    0.3850   -1.1870    0.1380 C   0  0  0  0  0  0  0  0  0  0  0  0
    1.6820   -1.5190   -0.0890 C   0  0  0  0  0  0  0  0  0  0  0  0
    2.6040   -0.5240   -0.3730 C   0  0  0  0  0  0  0  0  0  0  0  0
    3.9170   -0.8750   -0.6010 O   0  0  0  0  0  0  0  0  0  0  0  0
    2.1830    0.7890   -0.4190 C   0  0  0  0  0  0  0  0  0  0  0  0
    3.0530    1.8270   -0.6970 O   0  0  0  0  0  0  0  0  0  0  0  0
    0.8380    1.0860   -0.1790 C   0  0  0  0  0  0  0  0  0  0  0  0
  2  3  1  0
  3  4  1  0
  4  5  1  6
  4  6  1  0
  6  7  2  0
  6 13  1  0
  7  8  1  0
  8  9  2  0
  9 10  1  0
  9 11  1  0
 11 12  1  0
 11 13  2  0
M  CHG  1   2   1
M  END
$$$$
../data/sim100/CHEMBL14927.pdb
     RDKit          3D

 22 23  0  0  1  0  0  0  0  0999 V2000
    0.5460   -1.8920   -3.4330 C   0  0  0  0  0  0  0  0  0  0  0  0
    1.1990   -1.1860   -2.2860 C   0  0  0  0  0  0  0  0  0  0  0  0
    0.3280   -0.5630   -1.2860 C   0  0  2  0  0  0  0  0  0  0  0  0
    1.3340    0.1290   -0.3270 C   0  0  0  0  0  0  0  0  0  0  0  0
    2.1930   -0.6500    0.3990 C   0  0  0  0  0  0  0  0  0  0  0  0
    3.1130   -0.1010    1.2720 C   0  0  0  0  0  0  0  0  0  0  0  0
    3.1340    1.2680    1.3880 C   0  0  0  0  0  0  0  0  0  0  0  0
    4.0300    1.9000    2.2460 O   0  0  0  0  0  0  0  0  0  0  0  0
    2.2640    2.0760    0.6560 C   0  0  0  0  0  0  0  0  0  0  0  0
    2.3020    3.4920    0.7910 N   0  0  0  0  0  0  0  0  0  0  0  0
    1.3560    1.4880   -0.2100 C   0  0  0  0  0  0  0  0  0  0  0  0
   -0.5280   -1.2980   -0.3620 C   0  0  2  0  0  0  0  0  0  0  0  0
   -1.5970   -2.2210   -0.7370 C   0  0  0  0  0  0  0  0  0  0  0  0
   -1.2810   -3.4630   -1.4890 C   0  0  0  0  0  0  0  0  0  0  0  0
   -1.1650   -0.2730    0.5360 C   0  0  0  0  0  0  0  0  0  0  0  0
   -0.8410   -0.2500    1.8570 C   0  0  0  0  0  0  0  0  0  0  0  0
   -1.4270    0.7010    2.7070 C   0  0  0  0  0  0  0  0  0  0  0  0
   -2.3290    1.6070    2.1940 C   0  0  0  0  0  0  0  0  0  0  0  0
   -2.9010    2.5460    3.0590 O   0  0  0  0  0  0  0  0  0  0  0  0
   -2.6580    1.5850    0.8560 C   0  0  0  0  0  0  0  0  0  0  0  0
   -3.5820    2.5080    0.3160 N   0  0  0  0  0  0  0  0  0  0  0  0
   -2.0580    0.6250    0.0320 C   0  0  0  0  0  0  0  0  0  0  0  0
  1  2  1  0
  3  2  1  6
  3  4  1  0
  3 12  1  0
  4  5  2  0
  4 11  1  0
  5  6  1  0
  6  7  2  0
  7  8  1  0
  7  9  1  0
  9 10  1  0
  9 11  2  0
 12 13  1  6
 12 15  1  0
 13 14  1  0
 15 16  2  0
 15 22  1  0
 16 17  1  0
 17 18  2  0
 18 19  1  0
 18 20  1  0
 20 21  1  0
 20 22  2  0
M  END
>  <MODEL>  (51) 
       1

$$$$
../data/sim100/CHEMBL14927.pdb
     RDKit          3D

 22 23  0  0  1  0  0  0  0  0999 V2000
   -2.3910   -2.0220    1.8800 C   0  0  0  0  0  0  0  0  0  0  0  0
   -1.4050   -2.3240    0.7650 C   0  0  0  0  0  0  0  0  0  0  0  0
   -0.4610   -1.1330    0.6350 C   0  0  2  0  0  0  0  0  0  0  0  0
   -1.3700    0.0300    0.3080 C   0  0  0  0  0  0  0  0  0  0  0  0
   -1.5260    1.0330    1.2320 C   0  0  0  0  0  0  0  0  0  0  0  0
   -2.3490    2.1020    0.9550 C   0  0  0  0  0  0  0  0  0  0  0  0
   -3.0060    2.1440   -0.2550 C   0  0  0  0  0  0  0  0  0  0  0  0
   -3.8340    3.2220   -0.5290 O   0  0  0  0  0  0  0  0  0  0  0  0
   -2.8850    1.1620   -1.2200 C   0  0  0  0  0  0  0  0  0  0  0  0
   -3.5700    1.2270   -2.4570 N   0  0  0  0  0  0  0  0  0  0  0  0
   -2.0440    0.1140   -0.8840 C   0  0  0  0  0  0  0  0  0  0  0  0
    0.5400   -1.3580   -0.4330 C   0  0  2  0  0  0  0  0  0  0  0  0
    1.3800   -2.5810   -0.1630 C   0  0  0  0  0  0  0  0  0  0  0  0
    2.1600   -2.4980    1.1170 C   0  0  0  0  0  0  0  0  0  0  0  0
    1.4400   -0.2400   -0.7080 C   0  0  0  0  0  0  0  0  0  0  0  0
    1.6310    0.1440   -2.0210 C   0  0  0  0  0  0  0  0  0  0  0  0
    2.4580    1.1930   -2.3700 C   0  0  0  0  0  0  0  0  0  0  0  0
    3.1300    1.9000   -1.4030 C   0  0  0  0  0  0  0  0  0  0  0  0
    3.9760    2.9630   -1.6890 O   0  0  0  0  0  0  0  0  0  0  0  0
    2.9530    1.5310   -0.0880 C   0  0  0  0  0  0  0  0  0  0  0  0
    3.6290    2.2320    0.9720 N   0  0  0  0  0  0  0  0  0  0  0  0
    2.1220    0.4820    0.2310 C   0  0  0  0  0  0  0  0  0  0  0  0
  1  2  1  0
  3  2  1  6
  3  4  1  0
  3 12  1  0
  4  5  2  0
  4 11  1  0
  5  6  1  0
  6  7  2  0
  7  8  1  0
  7  9  1  0
  9 10  1  0
  9 11  2  0
 12 13  1  1
 12 15  1  0
 13 14  1  0
 15 16  2  0
 15 22  1  0
 16 17  1  0
 17 18  2  0
 18 19  1  0
 18 20  1  0
 20 21  1  0
 20 22  2  0
M  END
>  <MODEL>  (52) 
       2

$$$$
../data/sim100/CHEMBL14927.pdb
     RDKit          3D

 22 23  0  0  1  0  0  0  0  0999 V2000
   -1.4410   -0.9150    2.6610 C   0  0  0  0  0  0  0  0  0  0  0  0
   -0.4470   -1.0840    1.5130 C   0  0  0  0  0  0  0  0  0  0  0  0
   -0.5690    0.0440    0.5260 C   0  0  2  0  0  0  0  0  0  0  0  0
   -1.9290    0.1210   -0.0580 C   0  0  0  0  0  0  0  0  0  0  0  0
   -2.5440   -1.0150   -0.5160 C   0  0  0  0  0  0  0  0  0  0  0  0
   -3.8060   -0.9530   -1.0720 C   0  0  0  0  0  0  0  0  0  0  0  0
   -4.4680    0.2760   -1.1710 C   0  0  0  0  0  0  0  0  0  0  0  0
   -5.7360    0.3870   -1.7220 O   0  0  0  0  0  0  0  0  0  0  0  0
   -3.8600    1.4250   -0.7130 C   0  0  0  0  0  0  0  0  0  0  0  0
   -4.5030    2.6920   -0.7970 N   0  0  0  0  0  0  0  0  0  0  0  0
   -2.5990    1.3520   -0.1600 C   0  0  0  0  0  0  0  0  0  0  0  0
    0.4950   -0.0110   -0.5490 C   0  0  2  0  0  0  0  0  0  0  0  0
    0.4560   -1.2610   -1.3680 C   0  0  0  0  0  0  0  0  0  0  0  0
    1.5840   -1.2120   -2.4140 C   0  0  0  0  0  0  0  0  0  0  0  0
    1.8540    0.3220   -0.0420 C   0  0  0  0  0  0  0  0  0  0  0  0
    2.3430    1.6240   -0.1140 C   0  0  0  0  0  0  0  0  0  0  0  0
    3.5880    1.9960    0.3250 C   0  0  0  0  0  0  0  0  0  0  0  0
    4.4080    1.0350    0.8680 C   0  0  0  0  0  0  0  0  0  0  0  0
    5.6690    1.3710    1.3210 O   0  0  0  0  0  0  0  0  0  0  0  0
    3.9610   -0.2650    0.9570 C   0  0  0  0  0  0  0  0  0  0  0  0
    4.7540   -1.3050    1.5050 N   0  0  0  0  0  0  0  0  0  0  0  0
    2.6910   -0.6170    0.5030 C   0  0  0  0  0  0  0  0  0  0  0  0
  1  2  1  0
  3  2  1  6
  3  4  1  0
  3 12  1  0
  4  5  2  0
  4 11  1  0
  5  6  1  0
  6  7  2  0
  7  8  1  0
  7  9  1  0
  9 10  1  0
  9 11  2  0
 12 13  1  1
 12 15  1  0
 13 14  1  0
 15 16  2  0
 15 22  1  0
 16 17  1  0
 17 18  2  0
 18 19  1  0
 18 20  1  0
 20 21  1  0
 20 22  2  0
M  END
>  <MODEL>  (53) 
       3

$$$$
../data/sim100/CHEMBL1256471.pdb
     RDKit          3D

 13 13  0  0  1  0  0  0  0  0999 V2000
   -2.1530   -0.8770   -0.3120 C   0  0  0  0  0  0  0  0  0  0  0  0
   -2.0060    0.6140   -0.1080 C   0  0  1  0  0  0  0  0  0  0  0  0
   -3.2620    1.1470    0.3250 N   0  0  0  0  0  0  0  0  0  0  0  0
   -0.8870    0.9170    0.8760 C   0  0  2  0  0  0  0  0  0  0  0  0
   -0.7030    2.2690    1.0510 O   0  0  0  0  0  0  0  0  0  0  0  0
    0.3540    0.2060    0.4900 C   0  0  0  0  0  0  0  0  0  0  0  0
    0.6880   -0.9840    1.0940 C   0  0  0  0  0  0  0  0  0  0  0  0
    1.8290   -1.6660    0.7580 C   0  0  0  0  0  0  0  0  0  0  0  0
    2.6560   -1.1370   -0.2100 C   0  0  0  0  0  0  0  0  0  0  0  0
    3.8140   -1.7970   -0.5730 O   0  0  0  0  0  0  0  0  0  0  0  0
    2.3410    0.0430   -0.8210 C   0  0  0  0  0  0  0  0  0  0  0  0
    3.1780    0.5710   -1.7960 O   0  0  0  0  0  0  0  0  0  0  0  0
    1.1990    0.7100   -0.4740 C   0  0  0  0  0  0  0  0  0  0  0  0
  2  1  1  1
  2  3  1  0
  2  4  1  0
  4  5  1  6
  4  6  1  0
  6  7  2  0
  6 13  1  0
  7  8  1  0
  8  9  2  0
  9 10  1  0
  9 11  1  0
 11 12  1  0
 11 13  2  0
M  CHG  1   3   1
M  END
>  <MODEL>  (54) 
       1

$$$$
../data/sim100/CHEMBL1256471.pdb
     RDKit          3D

 13 13  0  0  1  0  0  0  0  0999 V2000
   -2.0570    0.3690    1.3650 C   0  0  0  0  0  0  0  0  0  0  0  0
   -2.1570   -0.4070    0.1130 C   0  0  1  0  0  0  0  0  0  0  0  0
   -3.4640   -0.1950   -0.4820 N   0  0  0  0  0  0  0  0  0  0  0  0
   -1.1260   -0.1140   -0.9270 C   0  0  2  0  0  0  0  0  0  0  0  0
   -1.3640   -1.0020   -1.9840 O   0  0  0  0  0  0  0  0  0  0  0  0
    0.2610   -0.1630   -0.4500 C   0  0  0  0  0  0  0  0  0  0  0  0
    0.8930   -1.3700   -0.2440 C   0  0  0  0  0  0  0  0  0  0  0  0
    2.2070   -1.4550    0.2080 C   0  0  0  0  0  0  0  0  0  0  0  0
    2.9160   -0.3140    0.4620 C   0  0  0  0  0  0  0  0  0  0  0  0
    4.2440   -0.4140    0.9180 O   0  0  0  0  0  0  0  0  0  0  0  0
    2.3070    0.8970    0.2630 C   0  0  0  0  0  0  0  0  0  0  0  0
    3.0290    2.0500    0.5220 O   0  0  0  0  0  0  0  0  0  0  0  0
    0.9910    0.9770   -0.1890 C   0  0  0  0  0  0  0  0  0  0  0  0
  2  1  1  1
  2  3  1  0
  2  4  1  0
  4  5  1  6
  4  6  1  0
  6  7  2  0
  6 13  1  0
  7  8  1  0
  8  9  2  0
  9 10  1  0
  9 11  1  0
 11 12  1  0
 11 13  2  0
M  CHG  1   3   1
M  END
>  <MODEL>  (55) 
       2

$$$$
../data/sim100/CHEMBL3637795.pdb
     RDKit          3D

 20 21  0  0  1  0  0  0  0  0999 V2000
   -5.8710    1.8240    1.0500 N   0  0  0  0  0  0  0  0  0  0  0  0
   -4.8200    0.9530    0.6330 C   0  0  0  0  0  0  0  0  0  0  0  0
   -3.5410    1.4550    0.4270 C   0  0  0  0  0  0  0  0  0  0  0  0
   -2.5100    0.6430    0.0270 C   0  0  0  0  0  0  0  0  0  0  0  0
   -2.7270   -0.6910   -0.1780 C   0  0  0  0  0  0  0  0  0  0  0  0
   -1.6330   -1.5590   -0.6080 C   0  0  2  0  0  0  0  0  0  0  0  0
   -1.5160   -2.7410    0.0830 O   0  0  0  0  0  0  0  0  0  0  0  0
   -0.2890   -0.8740   -0.6580 C   0  0  0  0  0  0  0  0  0  0  0  0
    0.2450   -0.5620    0.6330 N   0  0  0  0  0  0  0  0  0  0  0  0
    1.5120    0.1130    0.4870 C   0  0  0  0  0  0  0  0  0  0  0  0
    2.5680   -0.7910   -0.0440 C   0  0  0  0  0  0  0  0  0  0  0  0
    3.8270    0.0350   -0.1390 C   0  0  0  0  0  0  0  0  0  0  0  0
    4.1330    0.7270   -1.2880 C   0  0  0  0  0  0  0  0  0  0  0  0
    5.3050    1.4600   -1.2910 C   0  0  0  0  0  0  0  0  0  0  0  0
    6.1570    1.5240   -0.2230 C   0  0  0  0  0  0  0  0  0  0  0  0
    5.8300    0.8190    0.9240 C   0  0  0  0  0  0  0  0  0  0  0  0
    4.6560    0.0730    0.9570 C   0  0  0  0  0  0  0  0  0  0  0  0
   -3.9890   -1.2180    0.0200 C   0  0  0  0  0  0  0  0  0  0  0  0
   -5.0300   -0.3830    0.4260 C   0  0  0  0  0  0  0  0  0  0  0  0
   -6.3120   -0.8800    0.6340 O   0  0  0  0  0  0  0  0  0  0  0  0
  1  2  1  0
  2  3  2  0
  2 19  1  0
  3  4  1  0
  4  5  2  0
  5  6  1  0
  5 18  1  0
  6  7  1  1
  6  8  1  0
  8  9  1  0
  9 10  1  0
 10 11  1  0
 11 12  1  0
 12 13  2  0
 12 17  1  0
 13 14  1  0
 14 15  2  0
 15 16  1  0
 16 17  2  0
 18 19  2  0
 19 20  1  0
M  CHG  1   9   1
M  END
>  <MODEL>  (56) 
       1

$$$$
../data/sim100/CHEMBL3637795.pdb
     RDKit          3D

 20 21  0  0  1  0  0  0  0  0999 V2000
    4.9690   -0.6730   -2.2010 N   0  0  0  0  0  0  0  0  0  0  0  0
    4.1730   -0.3390   -1.0590 C   0  0  0  0  0  0  0  0  0  0  0  0
    3.9920   -1.2060   -0.0080 C   0  0  0  0  0  0  0  0  0  0  0  0
    3.2180   -0.8480    1.0740 C   0  0  0  0  0  0  0  0  0  0  0  0
    2.5940    0.3910    1.1520 C   0  0  0  0  0  0  0  0  0  0  0  0
    1.7660    0.7750    2.3180 C   0  0  1  0  0  0  0  0  0  0  0  0
    2.0370    2.0730    2.7620 O   0  0  0  0  0  0  0  0  0  0  0  0
    0.2900    0.6750    1.9910 C   0  0  0  0  0  0  0  0  0  0  0  0
    0.0220   -0.6560    1.5380 N   0  0  0  0  0  0  0  0  0  0  0  0
   -1.3640   -0.8150    1.2350 C   0  0  0  0  0  0  0  0  0  0  0  0
   -1.7700   -0.0330    0.0240 C   0  0  0  0  0  0  0  0  0  0  0  0
   -3.2180   -0.2220   -0.2780 C   0  0  0  0  0  0  0  0  0  0  0  0
   -3.6400   -1.2360   -1.1210 C   0  0  0  0  0  0  0  0  0  0  0  0
   -5.0060   -1.3540   -1.3550 C   0  0  0  0  0  0  0  0  0  0  0  0
   -5.9010   -0.4810   -0.7600 C   0  0  0  0  0  0  0  0  0  0  0  0
   -5.4830    0.5300    0.0800 C   0  0  0  0  0  0  0  0  0  0  0  0
   -4.1280    0.6320    0.3000 C   0  0  0  0  0  0  0  0  0  0  0  0
    2.7750    1.2580    0.1010 C   0  0  0  0  0  0  0  0  0  0  0  0
    3.5620    0.8960   -1.0010 C   0  0  0  0  0  0  0  0  0  0  0  0
    3.7350    1.7800   -2.0530 O   0  0  0  0  0  0  0  0  0  0  0  0
  1  2  1  0
  2  3  2  0
  2 19  1  0
  3  4  1  0
  4  5  2  0
  5  6  1  0
  5 18  1  0
  6  7  1  6
  6  8  1  0
  8  9  1  0
  9 10  1  0
 10 11  1  0
 11 12  1  0
 12 13  2  0
 12 17  1  0
 13 14  1  0
 14 15  2  0
 15 16  1  0
 16 17  2  0
 18 19  2  0
 19 20  1  0
M  CHG  1   9   1
M  END
>  <MODEL>  (57) 
       2

$$$$
