../data/sim100/2.pdb
     RDKit          3D

 10 10  0  0  1  0  0  0  0  0999 V2000
    2.4900    0.4970    0.8410 O   0  0  0  0  0  0  0  0  0  0  0  0
    1.3970    0.2850   -0.0250 C   0  0  2  0  0  0  0  0  0  0  0  0
    0.5960    1.5200   -0.0660 C   0  0  0  0  0  0  0  0  0  0  0  0
   -0.6890    1.4730   -0.4370 C   0  0  0  0  0  0  0  0  0  0  0  0
   -1.2300    0.1380   -0.7920 C   0  0  2  0  0  0  0  0  0  0  0  0
   -2.5960    0.1310   -0.9360 O   0  0  0  0  0  0  0  0  0  0  0  0
   -0.8370   -0.8210    0.2950 C   0  0  2  0  0  0  0  0  0  0  0  0
   -1.4770   -0.4160    1.4700 O   0  0  0  0  0  0  0  0  0  0  0  0
    0.6470   -0.9180    0.4400 C   0  0  1  0  0  0  0  0  0  0  0  0
    1.0630   -2.0000   -0.3730 O   0  0  0  0  0  0  0  0  0  0  0  0
  2  1  1  1
  2  3  1  0
  2  9  1  0
  3  4  2  0
  4  5  1  0
  5  6  1  1
  5  7  1  0
  7  8  1  1
  7  9  1  0
  9 10  1  6
M  END
$$$$
../data/sim100/3.pdb
     RDKit          3D

 12 12  0  0  1  0  0  0  0  0999 V2000
   -1.5920   -1.8010   -0.7470 O   0  0  0  0  0  0  0  0  0  0  0  0
   -0.8410   -1.1270    0.2390 C   0  0  1  0  0  0  0  0  0  0  0  0
    0.6100   -1.2480    0.0110 C   0  0  1  0  0  0  0  0  0  0  0  0
    0.8420   -2.3530   -0.8430 O   0  0  0  0  0  0  0  0  0  0  0  0
    1.2990   -0.0790   -0.5800 C   0  0  2  0  0  0  0  0  0  0  0  0
    2.6540   -0.1150   -0.2060 O   0  0  0  0  0  0  0  0  0  0  0  0
    0.7660    1.2570   -0.1150 C   0  0  2  0  0  0  0  0  0  0  0  0
    0.8720    1.2560    1.2900 O   0  0  0  0  0  0  0  0  0  0  0  0
   -0.7150    1.2580   -0.5100 C   0  0  2  0  0  0  0  0  0  0  0  0
   -1.2140    2.5140   -0.3060 O   0  0  0  0  0  0  0  0  0  0  0  0
   -1.3840    0.2450    0.3680 C   0  0  1  0  0  0  0  0  0  0  0  0
   -2.7430    0.2180    0.0130 O   0  0  0  0  0  0  0  0  0  0  0  0
  2  1  1  6
  2  3  1  0
  2 11  1  0
  3  4  1  6
  3  5  1  0
  5  6  1  1
  5  7  1  0
  7  8  1  1
  7  9  1  0
  9 10  1  1
  9 11  1  0
 11 12  1  6
M  END
$$$$
../data/sim100/4.pdb
     RDKit          3D

  4  3  0  0  0  0  0  0  0  0999 V2000
   -1.4460   -1.0860   -0.5080 Br  0  0  0  0  0  0  0  0  0  0  0  0
   -0.0150    0.0080    0.1840 C   0  0  0  0  0  0  0  0  0  0  0  0
   -0.1880    1.8240   -0.4660 Br  0  0  0  0  0  0  0  0  0  0  0  0
    1.6480   -0.7030   -0.4990 Br  0  0  0  0  0  0  0  0  0  0  0  0
  1  2  1  0
  2  3  1  0
  2  4  1  0
M  END
$$$$
../data/sim100/5.pdb
     RDKit          3D

  4  3  0  0  0  0  0  0  0  0999 V2000
    1.2250    0.0660    0.1350 C   0  0  0  0  0  0  0  0  0  0  0  0
   -0.1660    0.3890   -0.2890 C   0  0  0  0  0  0  0  0  0  0  0  0
   -1.0440   -0.8500   -0.1770 C   0  0  0  0  0  0  0  0  0  0  0  0
   -0.7770    1.3870    0.4330 O   0  0  0  0  0  0  0  0  0  0  0  0
  1  2  1  0
  2  3  1  0
  2  4  1  0
M  END
$$$$
../data/sim100/6.pdb
     RDKit          3D

  4  3  0  0  0  0  0  0  0  0999 V2000
    0.7330   -0.0540    0.1630 C   0  0  0  0  0  0  0  0  0  0  0  0
   -0.5430    0.0400   -0.1210 C   0  0  0  0  0  0  0  0  0  0  0  0
   -1.5190    1.2670    0.6200 Cl  0  0  0  0  0  0  0  0  0  0  0  0
   -1.2630   -1.0690   -1.2440 Cl  0  0  0  0  0  0  0  0  0  0  0  0
  1  2  2  0
  2  3  1  0
  2  4  1  0
M  END
$$$$
../data/sim100/7.pdb
     RDKit          3D

  4  3  0  0  0  0  0  0  0  0999 V2000
    0.7000    0.0030    0.0960 C   0  0  0  0  0  0  0  0  0  0  0  0
   -0.6060    0.0130   -0.0930 C   0  0  0  0  0  0  0  0  0  0  0  0
   -1.3920   -0.9330    0.4790 F   0  0  0  0  0  0  0  0  0  0  0  0
   -1.2300    0.9470   -0.8530 F   0  0  0  0  0  0  0  0  0  0  0  0
  1  2  2  0
  2  3  1  0
  2  4  1  0
M  END
$$$$
../data/sim100/8.pdb
     RDKit          3D

  4  3  0  0  0  0  0  0  0  0999 V2000
    1.1540   -0.5120    0.0230 C   0  0  0  0  0  0  0  0  0  0  0  0
    0.0510    0.4280   -0.4230 C   0  0  0  0  0  0  0  0  0  0  0  0
   -1.2300    0.0830    0.2910 C   0  0  0  0  0  0  0  0  0  0  0  0
    0.5460    2.2720   -0.1880 Br  0  0  0  0  0  0  0  0  0  0  0  0
  1  2  1  0
  2  3  1  0
  2  4  1  0
M  END
$$$$
../data/sim100/9.pdb
     RDKit          3D

 10 10  0  0  1  0  0  0  0  0999 V2000
   -2.2420    0.5130    0.1330 C   0  0  0  0  0  0  0  0  0  0  0  0
   -0.9070   -0.0690    0.1010 C   0  0  0  0  0  0  0  0  0  0  0  0
    0.1580    0.6900    0.0530 C   0  0  0  0  0  0  0  0  0  0  0  0
    0.1140    2.1730    0.0240 C   0  0  0  0  0  0  0  0  0  0  0  0
    1.4920    0.0560    0.0340 C   0  0  2  0  0  0  0  0  0  0  0  0
    2.5000    0.9580   -0.2940 O   0  0  0  0  0  0  0  0  0  0  0  0
    1.4560   -1.1070   -0.8800 C   0  0  0  0  0  0  0  0  0  0  0  0
    0.3820   -1.8930   -0.8480 C   0  0  0  0  0  0  0  0  0  0  0  0
   -0.7350   -1.5540    0.1150 C   0  0  1  0  0  0  0  0  0  0  0  0
   -0.4810   -2.0180    1.3810 O   0  0  0  0  0  0  0  0  0  0  0  0
  1  2  1  0
  2  3  2  0
  2  9  1  0
  3  4  1  0
  3  5  1  0
  5  6  1  6
  5  7  1  0
  7  8  2  0
  8  9  1  0
  9 10  1  1
M  END
$$$$
../data/sim100/10.pdb
     RDKit          3D

 10 10  0  0  1  0  0  0  0  0999 V2000
    2.0750    0.1580    0.8070 N   0  0  0  0  0  0  0  0  0  0  0  0
    1.2780    0.3280   -0.3850 C   0  0  2  0  0  0  0  0  0  0  0  0
    0.4540    1.5380   -0.3800 C   0  0  0  0  0  0  0  0  0  0  0  0
   -0.8520    1.5850   -0.1370 C   0  0  0  0  0  0  0  0  0  0  0  0
   -1.6450    0.3600    0.1680 C   0  0  1  0  0  0  0  0  0  0  0  0
   -2.4960    0.0970   -0.9000 O   0  0  0  0  0  0  0  0  0  0  0  0
   -0.7770   -0.8270    0.4450 C   0  0  2  0  0  0  0  0  0  0  0  0
   -0.3560   -0.8510    1.7610 O   0  0  0  0  0  0  0  0  0  0  0  0
    0.3840   -0.8800   -0.5360 C   0  0  2  0  0  0  0  0  0  0  0  0
    1.0670   -2.0620   -0.3080 O   0  0  0  0  0  0  0  0  0  0  0  0
  2  1  1  1
  2  3  1  0
  2  9  1  0
  3  4  2  0
  4  5  1  0
  5  6  1  6
  5  7  1  0
  7  8  1  1
  7  9  1  0
  9 10  1  1
M  CHG  1   1   1
M  END
$$$$
../data/sim100/11.pdb
     RDKit          3D

 19 20  0  0  1  0  0  0  0  0999 V2000
   -5.2190   -0.3390    0.5980 O   0  0  0  0  0  0  0  0  0  0  0  0
   -3.9200    0.1440    0.7830 C   0  0  1  0  0  0  0  0  0  0  0  0
   -3.0170   -0.8930    1.3350 C   0  0  0  0  0  0  0  0  0  0  0  0
   -1.7180   -0.8420    1.1150 C   0  0  0  0  0  0  0  0  0  0  0  0
   -1.0290    0.2110    0.3220 C   0  0  1  0  0  0  0  0  0  0  0  0
   -0.1200   -0.4280   -0.5080 O   0  0  0  0  0  0  0  0  0  0  0  0
    1.2030   -0.1590   -0.1700 C   0  0  2  0  0  0  0  0  0  0  0  0
    1.8170    0.5280   -1.3390 C   0  0  0  0  0  0  0  0  0  0  0  0
    3.1340    0.7000   -1.3010 C   0  0  0  0  0  0  0  0  0  0  0  0
    3.8430    0.1930   -0.1100 C   0  0  1  0  0  0  0  0  0  0  0  0
    3.5800    0.8900    1.0430 O   0  0  0  0  0  0  0  0  0  0  0  0
    3.4330   -1.2760    0.0540 C   0  0  2  0  0  0  0  0  0  0  0  0
    3.9010   -1.9890   -1.0630 O   0  0  0  0  0  0  0  0  0  0  0  0
    1.9500   -1.4390    0.1890 C   0  0  1  0  0  0  0  0  0  0  0  0
    1.6570   -1.8240    1.4960 O   0  0  0  0  0  0  0  0  0  0  0  0
   -1.9700    1.1080   -0.4050 C   0  0  1  0  0  0  0  0  0  0  0  0
   -1.5200    1.4180   -1.7050 O   0  0  0  0  0  0  0  0  0  0  0  0
   -3.3570    0.5320   -0.5680 C   0  0  2  0  0  0  0  0  0  0  0  0
   -4.1280    1.5210   -1.1840 O   0  0  0  0  0  0  0  0  0  0  0  0
  2  1  1  6
  2  3  1  0
  2 18  1  0
  3  4  2  0
  4  5  1  0
  5  6  1  6
  5 16  1  0
  7  6  1  6
  7  8  1  0
  7 14  1  0
  8  9  2  0
  9 10  1  0
 10 11  1  1
 10 12  1  0
 12 13  1  6
 12 14  1  0
 14 15  1  1
 16 17  1  6
 16 18  1  0
 18 19  1  1
M  END
$$$$
../data/sim100/12.pdb
     RDKit          3D

 13 13  0  0  1  0  0  0  0  0999 V2000
    2.3740   -0.9790   -1.1820 C   0  0  0  0  0  0  0  0  0  0  0  0
    2.0230    0.0490   -0.4590 C   0  0  0  0  0  0  0  0  0  0  0  0
    1.1820   -0.1740    0.6360 O   0  0  0  0  0  0  0  0  0  0  0  0
   -0.1950    0.2050    0.5540 C   0  0  2  0  0  0  0  0  0  0  0  0
   -0.8860   -0.1120    1.7910 C   0  0  0  0  0  0  0  0  0  0  0  0
   -1.9910   -0.7930    1.9430 C   0  0  0  0  0  0  0  0  0  0  0  0
   -2.6270   -1.3090    0.7330 C   0  0  0  0  0  0  0  0  0  0  0  0
   -2.0920   -1.0870   -0.4600 C   0  0  0  0  0  0  0  0  0  0  0  0
   -0.8440   -0.3200   -0.6640 C   0  0  1  0  0  0  0  0  0  0  0  0
   -1.1810    0.7710   -1.5100 O   0  0  0  0  0  0  0  0  0  0  0  0
    2.5030    1.3620   -0.8050 C   0  0  0  0  0  0  0  0  0  0  0  0
    3.2490    1.5220   -1.7850 O   0  0  0  0  0  0  0  0  0  0  0  0
    2.1300    2.4400   -0.0410 O   0  0  0  0  0  0  0  0  0  0  0  0
  1  2  2  0
  2  3  1  0
  2 11  1  0
  4  3  1  1
  4  5  1  0
  4  9  1  0
  5  6  2  0
  6  7  1  0
  7  8  2  0
  8  9  1  0
  9 10  1  6
 11 12  2  0
 11 13  1  0
M  END
$$$$
../data/sim100/13.pdb
     RDKit          3D

  6  6  0  0  0  0  0  0  0  0999 V2000
   -1.1880    0.6920    0.0010 C   0  0  0  0  0  0  0  0  0  0  0  0
   -1.1770   -0.6810    0.0520 C   0  0  0  0  0  0  0  0  0  0  0  0
   -0.0060   -1.4100    0.0540 C   0  0  0  0  0  0  0  0  0  0  0  0
    1.1880   -0.6810   -0.0010 C   0  0  0  0  0  0  0  0  0  0  0  0
    1.1840    0.6960   -0.0530 C   0  0  0  0  0  0  0  0  0  0  0  0
   -0.0070    1.4020   -0.0530 C   0  0  0  0  0  0  0  0  0  0  0  0
  1  2  2  0
  1  6  1  0
  2  3  1  0
  3  4  2  0
  4  5  1  0
  5  6  2  0
M  END
$$$$
../data/sim100/14.pdb
     RDKit          3D

  2  1  0  0  0  0  0  0  0  0999 V2000
   -0.3240    0.4450   -0.0000 O   0  0  0  0  0  0  0  0  0  0  0  0
    1.2870   -0.1260    0.0000 Cl  0  0  0  0  0  0  0  0  0  0  0  0
  1  2  1  0
M  END
$$$$
../data/sim100/15.pdb
     RDKit          3D

  4  3  0  0  0  0  0  0  0  0999 V2000
    1.6460   -0.4080   -0.3290 O   0  0  0  0  0  0  0  0  0  0  0  0
    0.7550    0.2630    0.4970 C   0  0  0  0  0  0  0  0  0  0  0  0
   -0.6740   -0.1890    0.2700 C   0  0  0  0  0  0  0  0  0  0  0  0
   -0.9720    0.0860   -1.0770 O   0  0  0  0  0  0  0  0  0  0  0  0
  1  2  1  0
  2  3  1  0
  3  4  1  0
M  END
$$$$
../data/sim100/16.pdb
     RDKit          3D

  6  5  0  0  0  0  0  0  0  0999 V2000
    1.0930   -1.9810    0.2490 Br  0  0  0  0  0  0  0  0  0  0  0  0
    0.7260   -0.1360   -0.2380 C   0  0  0  0  0  0  0  0  0  0  0  0
    2.0080    1.0540    0.5490 Br  0  0  0  0  0  0  0  0  0  0  0  0
   -0.6860    0.1610    0.2270 C   0  0  0  0  0  0  0  0  0  0  0  0
   -1.2000    1.9720   -0.1900 Br  0  0  0  0  0  0  0  0  0  0  0  0
   -1.9050   -1.1040   -0.5790 Br  0  0  0  0  0  0  0  0  0  0  0  0
  1  2  1  0
  2  3  1  0
  2  4  1  0
  4  5  1  0
  4  6  1  0
M  END
$$$$
../data/sim100/17.pdb
     RDKit          3D

  6  5  0  0  1  0  0  0  0  0999 V2000
   -1.7440   -0.7370    0.3890 C   0  0  0  0  0  0  0  0  0  0  0  0
   -0.7310    0.3490    0.0720 C   0  0  1  0  0  0  0  0  0  0  0  0
   -0.9210    1.4710    0.8470 O   0  0  0  0  0  0  0  0  0  0  0  0
    0.6380   -0.2700    0.2630 C   0  0  2  0  0  0  0  0  0  0  0  0
    1.7440    0.6590   -0.1950 C   0  0  0  0  0  0  0  0  0  0  0  0
    0.6790   -1.3940   -0.5870 O   0  0  0  0  0  0  0  0  0  0  0  0
  2  1  1  1
  2  3  1  0
  2  4  1  0
  4  5  1  6
  4  6  1  0
M  END
$$$$
../data/sim100/18.pdb
     RDKit          3D

 12 12  0  0  1  0  0  0  0  0999 V2000
   -2.3210   -0.9850    0.7400 O   0  0  0  0  0  0  0  0  0  0  0  0
   -1.3440   -0.5720   -0.1680 C   0  0  1  0  0  0  0  0  0  0  0  0
   -1.0500    0.8780    0.0590 C   0  0  2  0  0  0  0  0  0  0  0  0
   -2.1480    1.5960   -0.4730 O   0  0  0  0  0  0  0  0  0  0  0  0
    0.1650    1.3560   -0.6820 C   0  0  1  0  0  0  0  0  0  0  0  0
    0.4650    2.6360   -0.2260 F   0  0  0  0  0  0  0  0  0  0  0  0
    1.3400    0.4500   -0.5870 C   0  0  1  0  0  0  0  0  0  0  0  0
    2.5010    1.0790   -0.1370 O   0  0  0  0  0  0  0  0  0  0  0  0
    1.1200   -0.7520    0.2930 C   0  0  2  0  0  0  0  0  0  0  0  0
    2.1780   -1.6380    0.0410 O   0  0  0  0  0  0  0  0  0  0  0  0
   -0.1630   -1.4720   -0.0100 C   0  0  2  0  0  0  0  0  0  0  0  0
    0.0400   -2.2090   -1.1680 F   0  0  0  0  0  0  0  0  0  0  0  0
  2  1  1  1
  2  3  1  0
  2 11  1  0
  3  4  1  6
  3  5  1  0
  5  6  1  1
  5  7  1  0
  7  8  1  1
  7  9  1  0
  9 10  1  6
  9 11  1  0
 11 12  1  6
M  END
$$$$
../data/sim100/19.pdb
     RDKit          3D

  8  7  0  0  1  0  0  0  0  0999 V2000
    2.0410    0.6940   -0.5370 O   0  0  0  0  0  0  0  0  0  0  0  0
    1.1040    1.0290    0.4420 C   0  0  0  0  0  0  0  0  0  0  0  0
    0.4150   -0.2610    0.8310 C   0  0  2  0  0  0  0  0  0  0  0  0
    1.3740   -1.1440    1.3580 O   0  0  0  0  0  0  0  0  0  0  0  0
   -0.1560   -0.8410   -0.4650 C   0  0  1  0  0  0  0  0  0  0  0  0
   -0.7410   -2.0830   -0.2180 O   0  0  0  0  0  0  0  0  0  0  0  0
   -1.1560    0.1500   -0.9960 C   0  0  0  0  0  0  0  0  0  0  0  0
   -2.1840    0.3840   -0.0910 O   0  0  0  0  0  0  0  0  0  0  0  0
  1  2  1  0
  2  3  1  0
  3  4  1  6
  3  5  1  0
  5  6  1  1
  5  7  1  0
  7  8  1  0
M  END
$$$$
../data/sim100/21.pdb
     RDKit          3D

 12 12  0  0  1  0  0  0  0  0999 V2000
    0.9120    2.3530    0.0910 O   0  0  0  0  0  0  0  0  0  0  0  0
    0.4050    1.0860    0.4690 C   0  0  2  0  0  0  0  0  0  0  0  0
    1.3770    0.0650    0.0280 C   0  0  2  0  0  0  0  0  0  0  0  0
    1.9870    0.3340   -1.1900 O   0  0  0  0  0  0  0  0  0  0  0  0
    0.7550   -1.3030    0.0890 C   0  0  1  0  0  0  0  0  0  0  0  0
    0.3340   -1.4870    1.4240 O   0  0  0  0  0  0  0  0  0  0  0  0
   -0.4360   -1.3660   -0.8170 C   0  0  1  0  0  0  0  0  0  0  0  0
   -1.0010   -2.6390   -0.6440 F   0  0  0  0  0  0  0  0  0  0  0  0
   -1.4550   -0.3690   -0.4190 C   0  0  1  0  0  0  0  0  0  0  0  0
   -2.2360   -0.9440    0.6100 O   0  0  0  0  0  0  0  0  0  0  0  0
   -0.9690    0.9700   -0.0430 C   0  0  2  0  0  0  0  0  0  0  0  0
   -1.1500    1.8630   -1.1270 O   0  0  0  0  0  0  0  0  0  0  0  0
  2  1  1  6
  2  3  1  0
  2 11  1  0
  3  4  1  6
  3  5  1  0
  5  6  1  1
  5  7  1  0
  7  8  1  1
  7  9  1  0
  9 10  1  1
  9 11  1  0
 11 12  1  6
M  END
$$$$
../data/sim100/22.pdb
     RDKit          3D

  6  5  0  0  0  0  0  0  0  0999 V2000
   -1.7050    0.2410    1.0780 C   0  0  0  0  0  0  0  0  0  0  0  0
   -1.1130    0.7340   -0.2380 C   0  0  0  0  0  0  0  0  0  0  0  0
   -0.2290   -0.3010   -0.8230 C   0  0  0  0  0  0  0  0  0  0  0  0
    0.2950    0.1840   -2.0270 O   0  0  0  0  0  0  0  0  0  0  0  0
    0.8910   -0.7850    0.0200 C   0  0  0  0  0  0  0  0  0  0  0  0
    1.8840    0.2090    0.4600 C   0  0  0  0  0  0  0  0  0  0  0  0
  1  2  1  0
  2  3  1  0
  3  4  1  0
  3  5  1  0
  5  6  1  0
M  END
$$$$
../data/sim100/24.pdb
     RDKit          3D

  6  5  0  0  0  0  0  0  0  0999 V2000
    2.3760   -0.0080   -0.5280 N   0  0  0  0  0  0  0  0  0  0  0  0
    1.2970    0.4470    0.3180 C   0  0  0  0  0  0  0  0  0  0  0  0
   -0.0020   -0.1730   -0.1720 C   0  0  0  0  0  0  0  0  0  0  0  0
   -0.2700    0.1900   -1.4680 O   0  0  0  0  0  0  0  0  0  0  0  0
   -1.1200    0.1630    0.7920 C   0  0  0  0  0  0  0  0  0  0  0  0
   -2.3370   -0.5230    0.4000 N   0  0  0  0  0  0  0  0  0  0  0  0
  1  2  1  0
  2  3  1  0
  3  4  1  0
  3  5  1  0
  5  6  1  0
M  CHG  2   1   1   6   1
M  END
$$$$
../data/sim100/26.pdb
     RDKit          3D

  6  5  0  0  0  0  0  0  0  0999 V2000
    0.5000    1.5570    0.1360 N   0  0  0  0  0  0  0  0  0  0  0  0
   -0.0620    0.3610   -0.3010 C   0  0  0  0  0  0  0  0  0  0  0  0
   -1.4190    0.0500    0.3070 C   0  0  0  0  0  0  0  0  0  0  0  0
   -1.8280   -1.1710   -0.2390 O   0  0  0  0  0  0  0  0  0  0  0  0
    0.8440   -0.8140    0.0890 C   0  0  0  0  0  0  0  0  0  0  0  0
    2.0940   -0.7090   -0.4640 O   0  0  0  0  0  0  0  0  0  0  0  0
  1  2  1  0
  2  3  1  0
  2  5  1  0
  3  4  1  0
  5  6  1  0
M  CHG  1   1   1
M  END
$$$$
../data/sim100/27.pdb
     RDKit          3D

 10 10  0  0  1  0  0  0  0  0999 V2000
    2.2950    0.0790   -0.4230 N   0  0  0  0  0  0  0  0  0  0  0  0
    0.8920    0.2720   -0.6660 C   0  0  1  0  0  0  0  0  0  0  0  0
    0.1560   -1.0550   -0.5370 C   0  0  1  0  0  0  0  0  0  0  0  0
    0.6690   -1.6690    0.6130 O   0  0  0  0  0  0  0  0  0  0  0  0
   -1.2570   -0.6430   -0.2200 C   0  0  2  0  0  0  0  0  0  0  0  0
   -1.9910   -0.4210   -1.3720 O   0  0  0  0  0  0  0  0  0  0  0  0
   -1.1290    0.6150    0.6040 C   0  0  2  0  0  0  0  0  0  0  0  0
   -1.9680    1.5880    0.0810 O   0  0  0  0  0  0  0  0  0  0  0  0
    0.3280    1.0170    0.5340 C   0  0  1  0  0  0  0  0  0  0  0  0
    0.9360    0.4700    1.6830 O   0  0  0  0  0  0  0  0  0  0  0  0
  2  1  1  1
  2  3  1  0
  2  9  1  0
  3  4  1  1
  3  5  1  0
  5  6  1  6
  5  7  1  0
  7  8  1  6
  7  9  1  0
  9 10  1  1
M  CHG  1   1   1
M  END
$$$$
../data/sim100/28.pdb
     RDKit          3D

 12 12  0  0  1  0  0  0  0  0999 V2000
   -1.3390   -1.7230   -0.7120 N   0  0  0  0  0  0  0  0  0  0  0  0
   -0.9830   -0.8620    0.4260 C   0  0  1  0  0  0  0  0  0  0  0  0
    0.4400   -1.1720    0.8910 C   0  0  2  0  0  0  0  0  0  0  0  0
    0.6560   -0.3610    2.0070 O   0  0  0  0  0  0  0  0  0  0  0  0
    1.3540   -0.6780   -0.2010 C   0  0  1  0  0  0  0  0  0  0  0  0
    1.0220   -1.1660   -1.4540 O   0  0  0  0  0  0  0  0  0  0  0  0
    1.3330    0.8220   -0.1800 C   0  0  1  0  0  0  0  0  0  0  0  0
    1.9260    1.2270   -1.4020 O   0  0  0  0  0  0  0  0  0  0  0  0
    0.0120    1.4320    0.0560 C   0  0  1  0  0  0  0  0  0  0  0  0
   -0.1800    2.4160   -0.9470 O   0  0  0  0  0  0  0  0  0  0  0  0
   -1.1690    0.5720    0.1200 C   0  0  2  0  0  0  0  0  0  0  0  0
   -2.0980    1.0890    1.0570 O   0  0  0  0  0  0  0  0  0  0  0  0
  2  1  1  6
  2  3  1  0
  2 11  1  0
  3  4  1  1
  3  5  1  0
  5  6  1  6
  5  7  1  0
  7  8  1  6
  7  9  1  0
  9 10  1  6
  9 11  1  0
 11 12  1  1
M  CHG  1   1   1
M  END
$$$$
../data/sim100/29.pdb
     RDKit          3D

 14 14  0  0  1  0  0  0  0  0999 V2000
   -3.4700    0.3030   -0.9140 C   0  0  0  0  0  0  0  0  0  0  0  0
   -2.0920    0.4900   -0.9020 O   0  0  0  0  0  0  0  0  0  0  0  0
   -1.5550   -0.3220    0.0560 C   0  0  2  0  0  0  0  0  0  0  0  0
   -0.8590    0.4560    1.1410 C   0  0  1  0  0  0  0  0  0  0  0  0
   -0.6880   -0.4100    2.2370 O   0  0  0  0  0  0  0  0  0  0  0  0
    0.3950    1.1140    0.7080 C   0  0  2  0  0  0  0  0  0  0  0  0
    0.0860    2.3170    0.0640 O   0  0  0  0  0  0  0  0  0  0  0  0
    1.3220    0.2840   -0.1080 C   0  0  1  0  0  0  0  0  0  0  0  0
    2.2380   -0.3190    0.7530 O   0  0  0  0  0  0  0  0  0  0  0  0
    3.5390    0.1230    0.5160 C   0  0  0  0  0  0  0  0  0  0  0  0
    0.6930   -0.7400   -0.9880 C   0  0  2  0  0  0  0  0  0  0  0  0
    0.5380   -0.2600   -2.3040 O   0  0  0  0  0  0  0  0  0  0  0  0
   -0.5710   -1.3300   -0.4710 C   0  0  1  0  0  0  0  0  0  0  0  0
   -0.2600   -2.1990    0.5730 O   0  0  0  0  0  0  0  0  0  0  0  0
  1  2  1  0
  3  2  1  6
  3  4  1  0
  3 13  1  0
  4  5  1  1
  4  6  1  0
  6  7  1  6
  6  8  1  0
  8  9  1  1
  8 11  1  0
  9 10  1  0
 11 12  1  6
 11 13  1  0
 13 14  1  1
M  END
$$$$
../data/sim100/30.pdb
     RDKit          3D

 13 13  0  0  1  0  0  0  0  0999 V2000
    3.1820   -0.2780    0.0240 O   0  0  0  0  0  0  0  0  0  0  0  0
    2.1540    0.4890    0.5020 C   0  0  0  0  0  0  0  0  0  0  0  0
    0.9450    0.5030   -0.4470 C   0  0  1  0  0  0  0  0  0  0  0  0
    0.4170   -0.8760   -0.6440 C   0  0  1  0  0  0  0  0  0  0  0  0
    1.3860   -1.8420   -0.6390 O   0  0  0  0  0  0  0  0  0  0  0  0
   -0.5920   -1.1620    0.4390 C   0  0  2  0  0  0  0  0  0  0  0  0
   -0.9100   -2.5000    0.4520 O   0  0  0  0  0  0  0  0  0  0  0  0
   -1.7980   -0.3140    0.0940 C   0  0  2  0  0  0  0  0  0  0  0  0
   -2.3200   -0.8180   -1.0960 O   0  0  0  0  0  0  0  0  0  0  0  0
   -1.4740    1.1270   -0.0120 C   0  0  1  0  0  0  0  0  0  0  0  0
   -2.1800    1.7840    1.0250 O   0  0  0  0  0  0  0  0  0  0  0  0
   -0.0470    1.5040    0.0210 C   0  0  2  0  0  0  0  0  0  0  0  0
    0.1100    2.6790   -0.7480 O   0  0  0  0  0  0  0  0  0  0  0  0
  1  2  1  0
  3  2  1  1
  3  4  1  0
  3 12  1  0
  4  5  1  1
  4  6  1  0
  6  7  1  6
  6  8  1  0
  8  9  1  6
  8 10  1  0
 10 11  1  1
 10 12  1  0
 12 13  1  6
M  END
$$$$
../data/sim100/31.pdb
     RDKit          3D

  2  1  0  0  0  0  0  0  0  0999 V2000
    0.5800    0.0000    0.0000 O   0  0  0  0  0  0  0  0  0  0  0  0
   -0.5800    0.0000    0.0000 O   0  0  0  0  0  0  0  0  0  0  0  0
  1  2  2  0
M  END
$$$$
../data/sim100/32.pdb
     RDKit          3D

  9  9  0  0  1  0  0  0  0  0999 V2000
   -1.5040    0.9760    0.4110 C   0  0  0  0  0  0  0  0  0  0  0  0
   -0.8050   -0.3610    0.4750 C   0  0  2  0  0  0  0  0  0  0  0  0
    0.2270   -0.3510    1.4670 O   0  0  0  0  0  0  0  0  0  0  0  0
    1.4000    0.3790    1.1720 C   0  0  0  0  0  0  0  0  0  0  0  0
    2.1290    0.8940    2.0490 O   0  0  0  0  0  0  0  0  0  0  0  0
    1.7570    0.5270   -0.2330 C   0  0  0  0  0  0  0  0  0  0  0  0
    1.0260    0.0060   -1.2000 C   0  0  0  0  0  0  0  0  0  0  0  0
   -0.1830   -0.7460   -0.8370 C   0  0  1  0  0  0  0  0  0  0  0  0
    0.1480   -2.1200   -0.7150 O   0  0  0  0  0  0  0  0  0  0  0  0
  2  1  1  6
  2  3  1  0
  2  8  1  0
  3  4  1  0
  4  5  2  0
  4  6  1  0
  6  7  2  0
  7  8  1  0
  8  9  1  1
M  END
$$$$
../data/sim100/34.pdb
     RDKit          3D

  3  2  0  0  0  0  0  0  0  0999 V2000
   -1.1270    0.1190   -0.0390 C   0  0  0  0  0  0  0  0  0  0  0  0
    0.0480    0.5900   -0.5700 O   0  0  0  0  0  0  0  0  0  0  0  0
    1.1690   -0.0770   -0.0710 C   0  0  0  0  0  0  0  0  0  0  0  0
  1  2  1  0
  2  3  1  0
M  END
$$$$
../data/sim100/35.pdb
     RDKit          3D

  4  3  0  0  0  0  0  0  0  0999 V2000
   -1.7370   -0.9890   -0.5390 I   0  0  0  0  0  0  0  0  0  0  0  0
    0.0170   -0.0090    0.2050 C   0  0  0  0  0  0  0  0  0  0  0  0
    1.7830   -0.9710   -0.5020 I   0  0  0  0  0  0  0  0  0  0  0  0
   -0.0210    2.0200   -0.4710 I   0  0  0  0  0  0  0  0  0  0  0  0
  1  2  1  0
  2  3  1  0
  2  4  1  0
M  END
$$$$
../data/sim100/36.pdb
     RDKit          3D

  4  3  0  0  0  0  0  0  0  0999 V2000
    1.6770   -0.5380    0.0930 C   0  0  0  0  0  0  0  0  0  0  0  0
   -0.0270   -0.0120    0.4160 P   0  0  0  0  0  0  0  0  0  0  0  0
   -0.3950    1.7310    0.0030 C   0  0  0  0  0  0  0  0  0  0  0  0
   -1.3220   -1.1990   -0.0810 C   0  0  0  0  0  0  0  0  0  0  0  0
  1  2  1  0
  2  3  1  0
  2  4  1  0
M  END
$$$$
../data/sim100/37.pdb
     RDKit          3D

  3  2  0  0  0  0  0  0  0  0999 V2000
   -1.1730    0.0150   -0.1060 C   0  0  0  0  0  0  0  0  0  0  0  0
    0.0010    0.2000    0.7080 N   0  0  0  0  0  0  0  0  0  0  0  0
    1.1670    0.0460   -0.1220 C   0  0  0  0  0  0  0  0  0  0  0  0
  1  2  1  0
  2  3  1  0
M  CHG  1   2   1
M  END
$$$$
../data/sim100/38.pdb
     RDKit          3D

  4  3  0  0  0  0  0  0  0  0999 V2000
   -0.9880   -1.3230   -0.5330 Cl  0  0  0  0  0  0  0  0  0  0  0  0
   -0.0130    0.0020    0.1360 C   0  0  0  0  0  0  0  0  0  0  0  0
   -0.5990    1.5820   -0.4240 Cl  0  0  0  0  0  0  0  0  0  0  0  0
    1.6670   -0.1730   -0.4190 Cl  0  0  0  0  0  0  0  0  0  0  0  0
  1  2  1  0
  2  3  1  0
  2  4  1  0
M  END
$$$$
../data/sim100/39.pdb
     RDKit          3D

  3  2  0  0  0  0  0  0  0  0999 V2000
   -1.3060    0.0000    0.0010 C   0  0  0  0  0  0  0  0  0  0  0  0
   -0.0020   -0.0000    0.0010 C   0  0  0  0  0  0  0  0  0  0  0  0
    1.3090   -0.0020   -0.0010 C   0  0  0  0  0  0  0  0  0  0  0  0
  1  2  2  0
  2  3  2  0
M  END
$$$$
../data/sim100/40.pdb
     RDKit          3D

  4  3  0  0  0  0  0  0  0  0999 V2000
   -0.4340    1.3260   -0.0040 C   0  0  0  0  0  0  0  0  0  0  0  0
    0.0500   -0.0370    0.4060 C   0  0  0  0  0  0  0  0  0  0  0  0
    1.4420   -0.3150   -0.0870 C   0  0  0  0  0  0  0  0  0  0  0  0
   -0.9620   -1.0350   -0.1350 C   0  0  0  0  0  0  0  0  0  0  0  0
  1  2  1  0
  2  3  1  0
  2  4  1  0
M  END
$$$$
../data/sim100/41.pdb
     RDKit          3D

  3  2  0  0  0  0  0  0  0  0999 V2000
    1.4870    0.1260    0.2080 C   0  0  0  0  0  0  0  0  0  0  0  0
    0.0840   -1.0020    0.1610 S   0  0  0  0  0  0  0  0  0  0  0  0
   -1.4660   -0.1690   -0.1820 C   0  0  0  0  0  0  0  0  0  0  0  0
  1  2  1  0
  2  3  1  0
M  END
$$$$
../data/sim100/42.pdb
     RDKit          3D

  4  3  0  0  0  0  0  0  0  0999 V2000
   -0.4240    1.9000   -0.2310 S   0  0  0  0  0  0  0  0  0  0  0  0
   -0.0350    0.5180   -0.0550 C   0  0  0  0  0  0  0  0  0  0  0  0
   -1.1530   -0.8070   -0.5510 S   0  0  0  0  0  0  0  0  0  0  0  0
    1.5460    0.0630    0.6510 S   0  0  0  0  0  0  0  0  0  0  0  0
  1  2  2  0
  2  3  1  0
  2  4  1  0
M  END
$$$$
../data/sim100/44.pdb
     RDKit          3D

  4  3  0  0  0  0  0  0  0  0999 V2000
    1.2450   -0.5400    0.1850 C   0  0  0  0  0  0  0  0  0  0  0  0
   -0.0500    0.1850    0.5330 C   0  0  0  0  0  0  0  0  0  0  0  0
   -1.1180   -0.3440   -0.3930 C   0  0  0  0  0  0  0  0  0  0  0  0
    0.1680    1.9570    0.4250 S   0  0  0  0  0  0  0  0  0  0  0  0
  1  2  1  0
  2  3  1  0
  2  4  1  0
M  END
$$$$
../data/sim100/46.pdb
     RDKit          3D

  4  3  0  0  0  0  0  0  0  0999 V2000
    1.3400    0.0630   -0.1280 C   0  0  0  0  0  0  0  0  0  0  0  0
   -0.0660    0.0830    0.4350 C   0  0  0  0  0  0  0  0  0  0  0  0
   -0.8290   -1.0890   -0.1860 C   0  0  0  0  0  0  0  0  0  0  0  0
   -0.7790    1.2790    0.1700 N   0  0  0  0  0  0  0  0  0  0  0  0
  1  2  1  0
  2  3  1  0
  2  4  1  0
M  CHG  1   4   1
M  END
$$$$
../data/sim100/47.pdb
     RDKit          3D

  3  2  0  0  0  0  0  0  0  0999 V2000
   -0.8800    0.0580   -0.1060 C   0  0  0  0  0  0  0  0  0  0  0  0
    0.2720    0.0210   -0.6630 N   0  0  0  0  0  0  0  0  0  0  0  0
    1.4220   -0.3720   -0.0670 O   0  0  0  0  0  0  0  0  0  0  0  0
  1  2  2  0
  2  3  1  0
M  END
$$$$
../data/sim100/48.pdb
     RDKit          3D

  3  2  0  0  0  0  0  0  0  0999 V2000
    1.2980    0.4340    0.0670 C   0  0  0  0  0  0  0  0  0  0  0  0
    0.2180   -0.2240    0.4490 C   0  0  0  0  0  0  0  0  0  0  0  0
   -1.0660   -0.1890   -0.2910 C   0  0  0  0  0  0  0  0  0  0  0  0
  1  2  2  0
  2  3  1  0
M  END
$$$$
../data/sim100/49.pdb
     RDKit          3D

  4  3  0  0  0  0  0  0  0  0999 V2000
   -0.5280    1.5780   -0.5730 Cl  0  0  0  0  0  0  0  0  0  0  0  0
    0.0050    0.0410    0.1550 C   0  0  0  0  0  0  0  0  0  0  0  0
   -1.2390   -1.3250   -0.3890 Br  0  0  0  0  0  0  0  0  0  0  0  0
    1.7670   -0.4430   -0.4420 Br  0  0  0  0  0  0  0  0  0  0  0  0
  1  2  1  0
  2  3  1  0
  2  4  1  0
M  END
$$$$
../data/sim100/50.pdb
     RDKit          3D

  4  3  0  0  0  0  0  0  0  0999 V2000
   -0.6590    1.5330   -0.4780 Cl  0  0  0  0  0  0  0  0  0  0  0  0
   -0.0260   -0.0030    0.1480 C   0  0  0  0  0  0  0  0  0  0  0  0
   -1.0000   -1.3260   -0.5530 Cl  0  0  0  0  0  0  0  0  0  0  0  0
    1.8300   -0.1570   -0.3730 Br  0  0  0  0  0  0  0  0  0  0  0  0
  1  2  1  0
  2  3  1  0
  2  4  1  0
M  END
$$$$
../data/sim100/51.pdb
     RDKit          3D

  3  2  0  0  0  0  0  0  0  0999 V2000
   -0.9900    0.0770   -0.0450 C   0  0  0  0  0  0  0  0  0  0  0  0
    0.2930    0.3410    0.0210 C   0  0  0  0  0  0  0  0  0  0  0  0
    1.2970   -0.4940   -0.4420 O   0  0  0  0  0  0  0  0  0  0  0  0
  1  2  2  0
  2  3  1  0
M  END
$$$$
../data/sim100/52.pdb
     RDKit          3D

  8  8  0  0  0  0  0  0  0  0999 V2000
   -2.1350    1.5610   -0.0770 O   0  0  0  0  0  0  0  0  0  0  0  0
   -1.1180    0.8240   -0.0410 C   0  0  0  0  0  0  0  0  0  0  0  0
   -1.3040   -0.6140    0.1050 C   0  0  0  0  0  0  0  0  0  0  0  0
   -0.2350   -1.3910    0.1430 C   0  0  0  0  0  0  0  0  0  0  0  0
    1.1230   -0.8250    0.0410 C   0  0  0  0  0  0  0  0  0  0  0  0
    2.1370   -1.5620    0.0770 O   0  0  0  0  0  0  0  0  0  0  0  0
    1.2900    0.6160   -0.1050 C   0  0  0  0  0  0  0  0  0  0  0  0
    0.2300    1.4070   -0.1450 C   0  0  0  0  0  0  0  0  0  0  0  0
  1  2  2  0
  2  3  1  0
  2  8  1  0
  3  4  2  0
  4  5  1  0
  5  6  2  0
  5  7  1  0
  7  8  2  0
M  END
$$$$
../data/sim100/53.pdb
     RDKit          3D

  8  8  0  0  0  0  0  0  0  0999 V2000
    2.7510    0.5060   -0.2760 O   0  0  0  0  0  0  0  0  0  0  0  0
    1.3880    0.2260   -0.1960 C   0  0  0  0  0  0  0  0  0  0  0  0
    0.4560    1.1770   -0.5540 C   0  0  0  0  0  0  0  0  0  0  0  0
   -0.8930    0.9050   -0.4760 C   0  0  0  0  0  0  0  0  0  0  0  0
   -1.3770   -0.3170   -0.0400 C   0  0  0  0  0  0  0  0  0  0  0  0
   -2.7390   -0.5890    0.0380 O   0  0  0  0  0  0  0  0  0  0  0  0
   -0.4390   -1.2630    0.3180 C   0  0  0  0  0  0  0  0  0  0  0  0
    0.9100   -0.9930    0.2400 C   0  0  0  0  0  0  0  0  0  0  0  0
  1  2  1  0
  2  3  2  0
  2  8  1  0
  3  4  1  0
  4  5  2  0
  5  6  1  0
  5  7  1  0
  7  8  2  0
M  END
$$$$
../data/sim100/55.pdb
     RDKit          3D

  6  5  0  0  1  0  0  0  0  0999 V2000
   -1.2370    1.3640    0.1590 C   0  0  0  0  0  0  0  0  0  0  0  0
   -0.4370    0.0870    0.3730 C   0  0  0  0  0  0  0  0  0  0  0  0
   -1.3080   -1.0540   -0.0900 C   0  0  0  0  0  0  0  0  0  0  0  0
    0.8300    0.2170   -0.4150 C   0  0  2  0  0  0  0  0  0  0  0  0
    1.7310   -0.9820   -0.3000 C   0  0  0  0  0  0  0  0  0  0  0  0
    1.5190    1.3240    0.0880 O   0  0  0  0  0  0  0  0  0  0  0  0
  1  2  1  0
  2  3  1  0
  2  4  1  0
  4  5  1  1
  4  6  1  0
M  END
$$$$
../data/sim100/56.pdb
     RDKit          3D

  6  5  0  0  1  0  0  0  0  0999 V2000
   -1.1850   -0.8040   -0.7580 O   0  0  0  0  0  0  0  0  0  0  0  0
   -0.5970    0.2640   -0.1080 C   0  0  2  0  0  0  0  0  0  0  0  0
   -0.6500    1.6580   -1.2090 Cl  0  0  0  0  0  0  0  0  0  0  0  0
    0.8310   -0.0510    0.3140 C   0  0  0  0  0  0  0  0  0  0  0  0
    1.5520    1.3400    1.1440 Cl  0  0  0  0  0  0  0  0  0  0  0  0
    1.8540   -0.4420   -1.0800 Cl  0  0  0  0  0  0  0  0  0  0  0  0
  2  1  1  6
  2  3  1  0
  2  4  1  0
  4  5  1  0
  4  6  1  0
M  END
$$$$
../data/sim100/57.pdb
     RDKit          3D

  9  9  0  0  0  0  0  0  0  0999 V2000
   -1.6220   -2.2780   -0.0820 O   0  0  0  0  0  0  0  0  0  0  0  0
   -0.8110   -1.1390   -0.1300 C   0  0  0  0  0  0  0  0  0  0  0  0
    0.5630   -1.2560   -0.1200 C   0  0  0  0  0  0  0  0  0  0  0  0
    1.3670   -0.1310   -0.1680 C   0  0  0  0  0  0  0  0  0  0  0  0
    2.7400   -0.3000   -0.1550 O   0  0  0  0  0  0  0  0  0  0  0  0
    0.8400    1.1410   -0.2260 C   0  0  0  0  0  0  0  0  0  0  0  0
   -0.5400    1.2420   -0.2360 C   0  0  0  0  0  0  0  0  0  0  0  0
   -1.0980    2.5140   -0.2940 O   0  0  0  0  0  0  0  0  0  0  0  0
   -1.3570    0.1270   -0.1890 C   0  0  0  0  0  0  0  0  0  0  0  0
  1  2  1  0
  2  3  2  0
  2  9  1  0
  3  4  1  0
  4  5  1  0
  4  6  2  0
  6  7  1  0
  7  8  1  0
  7  9  2  0
M  END
$$$$
../data/sim100/58.pdb
     RDKit          3D

 10 10  0  0  0  0  0  0  0  0999 V2000
   -2.5000    1.2690    0.1100 N   0  0  0  0  0  0  0  0  0  0  0  0
   -1.2260    0.6310    0.0580 C   0  0  0  0  0  0  0  0  0  0  0  0
   -0.0680    1.3920   -0.0090 C   0  0  0  0  0  0  0  0  0  0  0  0
    1.1430    0.7560   -0.0580 C   0  0  0  0  0  0  0  0  0  0  0  0
    2.3640    1.4750   -0.1280 N   0  0  0  0  0  0  0  0  0  0  0  0
    1.2230   -0.6220   -0.0410 C   0  0  0  0  0  0  0  0  0  0  0  0
    2.4860   -1.2630   -0.0920 N   0  0  0  0  0  0  0  0  0  0  0  0
    0.0850   -1.4030    0.0260 C   0  0  0  0  0  0  0  0  0  0  0  0
   -1.1480   -0.7450    0.0760 C   0  0  0  0  0  0  0  0  0  0  0  0
   -2.3600   -1.4710    0.1450 N   0  0  0  0  0  0  0  0  0  0  0  0
  1  2  1  0
  2  3  2  0
  2  9  1  0
  3  4  1  0
  4  5  1  0
  4  6  2  0
  6  7  1  0
  6  8  1  0
  8  9  2  0
  9 10  1  0
M  END
$$$$
../data/sim100/59.pdb
     RDKit          3D

  8  8  0  0  0  0  0  0  0  0999 V2000
   -2.8270   -0.2280    0.1240 N   0  0  0  0  0  0  0  0  0  0  0  0
   -1.4030   -0.1100    0.0640 C   0  0  0  0  0  0  0  0  0  0  0  0
   -0.6160   -1.1700   -0.3360 C   0  0  0  0  0  0  0  0  0  0  0  0
    0.7410   -1.0700   -0.3970 C   0  0  0  0  0  0  0  0  0  0  0  0
    1.4060    0.0980   -0.0620 C   0  0  0  0  0  0  0  0  0  0  0  0
    2.8200    0.2220   -0.1190 N   0  0  0  0  0  0  0  0  0  0  0  0
    0.6130    1.1540    0.3370 C   0  0  0  0  0  0  0  0  0  0  0  0
   -0.7600    1.0610    0.4020 C   0  0  0  0  0  0  0  0  0  0  0  0
  1  2  1  0
  2  3  2  0
  2  8  1  0
  3  4  1  0
  4  5  2  0
  5  6  1  0
  5  7  1  0
  7  8  2  0
M  END
$$$$
../data/sim100/60.pdb
     RDKit          3D

  9  9  0  0  0  0  0  0  0  0999 V2000
   -0.8950    2.6420   -0.0390 N   0  0  0  0  0  0  0  0  0  0  0  0
   -0.4210    1.3010   -0.0220 C   0  0  0  0  0  0  0  0  0  0  0  0
   -1.3670    0.3090    0.1220 C   0  0  0  0  0  0  0  0  0  0  0  0
   -0.9310   -1.0010    0.1410 C   0  0  0  0  0  0  0  0  0  0  0  0
   -1.8860   -2.0290    0.2890 N   0  0  0  0  0  0  0  0  0  0  0  0
    0.4300   -1.2880    0.0170 C   0  0  0  0  0  0  0  0  0  0  0  0
    1.3850   -0.3020   -0.1290 C   0  0  0  0  0  0  0  0  0  0  0  0
    2.7660   -0.6190   -0.2540 N   0  0  0  0  0  0  0  0  0  0  0  0
    0.9210    1.0010   -0.1450 C   0  0  0  0  0  0  0  0  0  0  0  0
  1  2  1  0
  2  3  2  0
  2  9  1  0
  3  4  1  0
  4  5  1  0
  4  6  2  0
  6  7  1  0
  7  8  1  0
  7  9  2  0
M  END
$$$$
../data/sim100/61.pdb
     RDKit          3D

 10 10  0  0  1  0  0  0  0  0999 V2000
   -0.9090    0.3510   -2.0460 O   0  0  0  0  0  0  0  0  0  0  0  0
   -1.0270    0.7770   -0.7360 C   0  0  2  0  0  0  0  0  0  0  0  0
    0.2480    1.4660   -0.3500 C   0  0  0  0  0  0  0  0  0  0  0  0
    1.3170    0.5480    0.1300 C   0  0  1  0  0  0  0  0  0  0  0  0
    1.4940    0.7250    1.4950 O   0  0  0  0  0  0  0  0  0  0  0  0
    1.0730   -0.8940   -0.2380 C   0  0  1  0  0  0  0  0  0  0  0  0
    2.1110   -1.6820    0.2020 O   0  0  0  0  0  0  0  0  0  0  0  0
   -0.2580   -1.4040    0.2250 C   0  0  0  0  0  0  0  0  0  0  0  0
   -1.3490   -0.3760    0.1760 C   0  0  1  0  0  0  0  0  0  0  0  0
   -1.5480    0.1000    1.4620 O   0  0  0  0  0  0  0  0  0  0  0  0
  2  1  1  6
  2  3  1  0
  2  9  1  0
  3  4  1  0
  4  5  1  1
  4  6  1  0
  6  7  1  1
  6  8  1  0
  8  9  1  0
  9 10  1  1
M  END
$$$$
../data/sim100/62.pdb
     RDKit          3D

  6  5  0  0  0  0  0  0  0  0999 V2000
   -0.2570    0.4250   -1.6960 O   0  0  0  0  0  0  0  0  0  0  0  0
   -0.2610   -0.0870   -0.2560 P   0  0  0  0  0  0  0  0  0  0  0  0
   -1.6540   -0.9720    0.0490 O   0  0  0  0  0  0  0  0  0  0  0  0
   -0.1150    1.2650    0.7370 O   0  0  0  0  0  0  0  0  0  0  0  0
    1.1320   -1.0660   -0.1260 O   0  0  0  0  0  0  0  0  0  0  0  0
    2.0000   -0.4440    0.6320 O   0  0  0  0  0  0  0  0  0  0  0  0
  1  2  2  0
  2  3  1  0
  2  4  1  0
  2  5  1  0
  5  6  1  0
M  END
$$$$
../data/sim100/63.pdb
     RDKit          3D

 10  9  0  0  1  0  0  0  0  0999 V2000
    3.2790   -0.8170   -0.4690 O   0  0  0  0  0  0  0  0  0  0  0  0
    1.9640   -0.4810   -0.7290 C   0  0  0  0  0  0  0  0  0  0  0  0
    1.2810    0.0740    0.5030 C   0  0  1  0  0  0  0  0  0  0  0  0
    2.0220    1.2220    0.8670 O   0  0  0  0  0  0  0  0  0  0  0  0
   -0.1020    0.5300    0.1970 C   0  0  1  0  0  0  0  0  0  0  0  0
   -0.0330    1.4450   -0.8550 O   0  0  0  0  0  0  0  0  0  0  0  0
   -1.0240   -0.5780   -0.2270 C   0  0  1  0  0  0  0  0  0  0  0  0
   -1.1800   -1.5610    0.7380 O   0  0  0  0  0  0  0  0  0  0  0  0
   -2.3890   -0.0360   -0.5880 C   0  0  0  0  0  0  0  0  0  0  0  0
   -3.0000    0.5080    0.5420 O   0  0  0  0  0  0  0  0  0  0  0  0
  1  2  1  0
  2  3  1  0
  3  4  1  6
  3  5  1  0
  5  6  1  6
  5  7  1  0
  7  8  1  1
  7  9  1  0
  9 10  1  0
M  END
$$$$
../data/sim100/64.pdb
     RDKit          3D

 23 24  0  0  1  0  0  0  0  0999 V2000
   -5.1500    0.4970   -0.3390 O   0  0  0  0  0  0  0  0  0  0  0  0
   -3.7690    0.2790   -0.5350 C   0  0  2  0  0  0  0  0  0  0  0  0
   -3.4820   -1.1270   -0.1500 C   0  0  1  0  0  0  0  0  0  0  0  0
   -4.0250   -1.9570   -1.1580 O   0  0  0  0  0  0  0  0  0  0  0  0
   -2.0350   -1.4700   -0.0370 C   0  0  1  0  0  0  0  0  0  0  0  0
   -1.5080   -2.0520   -1.1790 O   0  0  0  0  0  0  0  0  0  0  0  0
   -1.1790   -0.2640    0.3260 C   0  0  2  0  0  0  0  0  0  0  0  0
   -0.0160   -0.6040    0.9670 O   0  0  0  0  0  0  0  0  0  0  0  0
    1.1330   -0.2210    0.2430 C   0  0  1  0  0  0  0  0  0  0  0  0
    1.9200    0.7540    1.0360 C   0  0  2  0  0  0  0  0  0  0  0  0
    1.4050    2.0410    0.7460 O   0  0  0  0  0  0  0  0  0  0  0  0
    3.3730    0.7900    0.8190 C   0  0  2  0  0  0  0  0  0  0  0  0
    3.7720    1.9640    0.1380 O   0  0  0  0  0  0  0  0  0  0  0  0
    3.9840   -0.3620    0.1140 C   0  0  2  0  0  0  0  0  0  0  0  0
    5.1590    0.0410   -0.5510 O   0  0  0  0  0  0  0  0  0  0  0  0
    3.1040   -1.0070   -0.9170 C   0  0  2  0  0  0  0  0  0  0  0  0
    2.6630   -0.0910   -1.8610 O   0  0  0  0  0  0  0  0  0  0  0  0
    1.8570   -1.4620   -0.1480 C   0  0  1  0  0  0  0  0  0  0  0  0
    2.2620   -2.1440    0.9970 O   0  0  0  0  0  0  0  0  0  0  0  0
   -2.0710    0.6270    1.1850 C   0  0  1  0  0  0  0  0  0  0  0  0
   -1.3640    1.4570    2.0110 O   0  0  0  0  0  0  0  0  0  0  0  0
   -3.0330    1.3090    0.2700 C   0  0  1  0  0  0  0  0  0  0  0  0
   -2.3610    2.1400   -0.6320 O   0  0  0  0  0  0  0  0  0  0  0  0
  2  1  1  1
  2  3  1  0
  2 22  1  0
  3  4  1  6
  3  5  1  0
  5  6  1  6
  5  7  1  0
  7  8  1  1
  7 20  1  0
  9  8  1  1
  9 10  1  0
  9 18  1  0
 10 11  1  6
 10 12  1  0
 12 13  1  6
 12 14  1  0
 14 15  1  6
 14 16  1  0
 16 17  1  6
 16 18  1  0
 18 19  1  1
 20 21  1  6
 20 22  1  0
 22 23  1  6
M  END
$$$$
../data/sim100/65.pdb
     RDKit          3D

  5  4  0  0  1  0  0  0  0  0999 V2000
   -1.0310   -0.9230   -0.0260 C   0  0  0  0  0  0  0  0  0  0  0  0
   -0.2020    0.2960   -0.3870 C   0  0  1  0  0  0  0  0  0  0  0  0
   -0.5580    1.3930    0.4920 N   0  0  0  0  0  0  0  0  0  0  0  0
    1.2870    0.0030   -0.2940 C   0  0  0  0  0  0  0  0  0  0  0  0
    1.6840   -0.3460    0.9670 O   0  0  0  0  0  0  0  0  0  0  0  0
  2  1  1  1
  2  3  1  0
  2  4  1  0
  4  5  1  0
M  CHG  1   3   1
M  END
$$$$
../data/sim100/66.pdb
     RDKit          3D

  5  4  0  0  1  0  0  0  0  0999 V2000
   -1.3840    0.1830    0.0090 C   0  0  0  0  0  0  0  0  0  0  0  0
   -0.0170   -0.4140    0.0540 C   0  0  1  0  0  0  0  0  0  0  0  0
    0.2630   -1.2090   -1.0480 O   0  0  0  0  0  0  0  0  0  0  0  0
    1.0810    0.5830    0.2760 C   0  0  0  0  0  0  0  0  0  0  0  0
    1.1940    1.8190   -0.9500 Cl  0  0  0  0  0  0  0  0  0  0  0  0
  2  1  1  6
  2  3  1  0
  2  4  1  0
  4  5  1  0
M  END
$$$$
../data/sim100/67.pdb
     RDKit          3D

  5  4  0  0  1  0  0  0  0  0999 V2000
   -1.4930   -0.5670    0.3150 C   0  0  0  0  0  0  0  0  0  0  0  0
   -0.4290    0.3470   -0.2720 C   0  0  1  0  0  0  0  0  0  0  0  0
   -0.5440    1.6510    0.1870 O   0  0  0  0  0  0  0  0  0  0  0  0
    0.9050   -0.2760    0.0520 C   0  0  0  0  0  0  0  0  0  0  0  0
    2.0120    0.4650   -0.5390 N   0  0  0  0  0  0  0  0  0  0  0  0
  2  1  1  1
  2  3  1  0
  2  4  1  0
  4  5  1  0
M  CHG  1   5   1
M  END
$$$$
../data/sim100/68.pdb
     RDKit          3D

 12 11  0  0  1  0  0  0  0  0999 V2000
    1.4220    1.7460    0.3830 O   0  0  0  0  0  0  0  0  0  0  0  0
    2.2480    0.6610    0.4920 C   0  0  0  0  0  0  0  0  0  0  0  0
    1.5070   -0.6570    0.6280 C   0  0  2  0  0  0  0  0  0  0  0  0
    2.5390   -1.6300    0.7330 O   0  0  0  0  0  0  0  0  0  0  0  0
    0.6470   -0.9740   -0.5480 C   0  0  2  0  0  0  0  0  0  0  0  0
    1.4660   -0.9380   -1.6850 O   0  0  0  0  0  0  0  0  0  0  0  0
   -0.5190   -0.0760   -0.7720 C   0  0  1  0  0  0  0  0  0  0  0  0
   -1.2250   -0.5430   -1.9160 O   0  0  0  0  0  0  0  0  0  0  0  0
   -1.5420   -0.0900    0.3380 C   0  0  1  0  0  0  0  0  0  0  0  0
   -1.0690    0.3350    1.5490 O   0  0  0  0  0  0  0  0  0  0  0  0
   -2.7140    0.7740   -0.1370 C   0  0  0  0  0  0  0  0  0  0  0  0
   -2.3310    2.0900   -0.2730 O   0  0  0  0  0  0  0  0  0  0  0  0
  1  2  1  0
  2  3  1  0
  3  4  1  6
  3  5  1  0
  5  6  1  6
  5  7  1  0
  7  8  1  6
  7  9  1  0
  9 10  1  1
  9 11  1  0
 11 12  1  0
M  END
$$$$
../data/sim100/69.pdb
     RDKit          3D

  5  4  0  0  0  0  0  0  0  0999 V2000
   -0.5100    1.3610   -0.4790 C   0  0  0  0  0  0  0  0  0  0  0  0
   -0.0750    0.2000   -0.0210 C   0  0  0  0  0  0  0  0  0  0  0  0
    1.3000    0.0360    0.5260 C   0  0  0  0  0  0  0  0  0  0  0  0
   -1.0060   -0.9810   -0.0610 C   0  0  0  0  0  0  0  0  0  0  0  0
   -0.2130   -2.2090   -1.0750 Cl  0  0  0  0  0  0  0  0  0  0  0  0
  1  2  2  0
  2  3  1  0
  2  4  1  0
  4  5  1  0
M  END
$$$$
../data/sim100/70.pdb
     RDKit          3D

 10 10  0  0  0  0  0  0  0  0999 V2000
   -3.4530    0.6430   -0.7380 O   0  0  0  0  0  0  0  0  0  0  0  0
   -2.3780    1.2680   -0.1520 N   0  0  0  0  0  0  0  0  0  0  0  0
   -1.2090    0.6740   -0.1100 C   0  0  0  0  0  0  0  0  0  0  0  0
   -0.0880    1.3630    0.5170 C   0  0  0  0  0  0  0  0  0  0  0  0
    1.0900    0.7360    0.5460 C   0  0  0  0  0  0  0  0  0  0  0  0
    1.2630   -0.5950   -0.0260 C   0  0  0  0  0  0  0  0  0  0  0  0
    2.3840   -1.2380   -0.0190 N   0  0  0  0  0  0  0  0  0  0  0  0
    3.4540   -0.5990    0.5710 O   0  0  0  0  0  0  0  0  0  0  0  0
    0.1370   -1.2810   -0.6530 C   0  0  0  0  0  0  0  0  0  0  0  0
   -1.0360   -0.6570   -0.6830 C   0  0  0  0  0  0  0  0  0  0  0  0
  1  2  1  0
  2  3  2  0
  3  4  1  0
  3 10  1  0
  4  5  2  0
  5  6  1  0
  6  7  2  0
  6  9  1  0
  7  8  1  0
  9 10  2  0
M  END
$$$$
../data/sim100/71.pdb
     RDKit          3D

 14 14  0  0  1  0  0  0  0  0999 V2000
    2.0960   -2.4200    0.2090 C   0  0  0  0  0  0  0  0  0  0  0  0
    1.2180   -1.7190   -0.6150 O   0  0  0  0  0  0  0  0  0  0  0  0
    0.8160   -0.5350   -0.0500 C   0  0  1  0  0  0  0  0  0  0  0  0
    1.2320    0.6800   -0.8410 C   0  0  1  0  0  0  0  0  0  0  0  0
    0.5920    0.8120   -2.0420 O   0  0  0  0  0  0  0  0  0  0  0  0
    0.8690    1.8880    0.0330 C   0  0  1  0  0  0  0  0  0  0  0  0
    1.4180    3.0100   -0.5290 O   0  0  0  0  0  0  0  0  0  0  0  0
   -0.6420    1.9080    0.0860 C   0  0  2  0  0  0  0  0  0  0  0  0
   -1.1590    3.1060    0.4940 O   0  0  0  0  0  0  0  0  0  0  0  0
   -1.0820    0.7410    0.9140 C   0  0  2  0  0  0  0  0  0  0  0  0
   -0.4820    0.7170    2.1750 O   0  0  0  0  0  0  0  0  0  0  0  0
   -0.6730   -0.5520    0.2290 C   0  0  1  0  0  0  0  0  0  0  0  0
   -1.4190   -0.8170   -0.8900 O   0  0  0  0  0  0  0  0  0  0  0  0
   -2.1360   -1.9940   -0.7190 C   0  0  0  0  0  0  0  0  0  0  0  0
  1  2  1  0
  3  2  1  6
  3  4  1  0
  3 12  1  0
  4  5  1  6
  4  6  1  0
  6  7  1  6
  6  8  1  0
  8  9  1  1
  8 10  1  0
 10 11  1  1
 10 12  1  0
 12 13  1  6
 13 14  1  0
M  END
$$$$
../data/sim100/72.pdb
     RDKit          3D

 13 13  0  0  1  0  0  0  0  0999 V2000
    3.3030   -0.3900   -0.2610 C   0  0  0  0  0  0  0  0  0  0  0  0
    2.2460   -0.1040    0.6080 O   0  0  0  0  0  0  0  0  0  0  0  0
    1.0190   -0.0750   -0.0650 C   0  0  1  0  0  0  0  0  0  0  0  0
    0.1540   -1.1470    0.5900 C   0  0  2  0  0  0  0  0  0  0  0  0
    0.7050   -2.4070    0.3030 O   0  0  0  0  0  0  0  0  0  0  0  0
   -1.2700   -1.0590    0.0640 C   0  0  1  0  0  0  0  0  0  0  0  0
   -2.0170   -2.1040    0.5320 O   0  0  0  0  0  0  0  0  0  0  0  0
   -1.7990    0.3010    0.5240 C   0  0  2  0  0  0  0  0  0  0  0  0
   -3.1540    0.4130    0.4110 O   0  0  0  0  0  0  0  0  0  0  0  0
   -1.0390    1.3180   -0.3280 C   0  0  2  0  0  0  0  0  0  0  0  0
   -1.0740    0.9330   -1.6750 O   0  0  0  0  0  0  0  0  0  0  0  0
    0.3990    1.2640    0.1930 C   0  0  2  0  0  0  0  0  0  0  0  0
    1.1350    2.3040   -0.3170 O   0  0  0  0  0  0  0  0  0  0  0  0
  1  2  1  0
  3  2  1  1
  3  4  1  0
  3 12  1  0
  4  5  1  6
  4  6  1  0
  6  7  1  1
  6  8  1  0
  8  9  1  6
  8 10  1  0
 10 11  1  6
 10 12  1  0
 12 13  1  6
M  END
$$$$
../data/sim100/73.pdb
     RDKit          3D

 12 12  0  0  1  0  0  0  0  0999 V2000
    2.2270    0.7490   -1.0270 C   0  0  0  0  0  0  0  0  0  0  0  0
    1.0260    0.4810   -0.5560 C   0  0  0  0  0  0  0  0  0  0  0  0
    0.2070   -0.6750   -1.0160 C   0  0  1  0  0  0  0  0  0  0  0  0
    0.9770   -1.4350   -1.8890 O   0  0  0  0  0  0  0  0  0  0  0  0
   -0.3440   -1.4720    0.1230 C   0  0  2  0  0  0  0  0  0  0  0  0
   -1.3000   -2.3580   -0.3760 O   0  0  0  0  0  0  0  0  0  0  0  0
   -1.0200   -0.5180    1.0870 C   0  0  2  0  0  0  0  0  0  0  0  0
   -2.0150    0.1550    0.4080 O   0  0  0  0  0  0  0  0  0  0  0  0
    0.0410    0.4000    1.6280 C   0  0  2  0  0  0  0  0  0  0  0  0
   -0.3010    1.0540    2.7720 O   0  0  0  0  0  0  0  0  0  0  0  0
    0.4200    1.3550    0.4900 C   0  0  2  0  0  0  0  0  0  0  0  0
   -0.7640    1.8690   -0.0460 O   0  0  0  0  0  0  0  0  0  0  0  0
  1  2  2  0
  2  3  1  0
  2 11  1  0
  3  4  1  6
  3  5  1  0
  5  6  1  6
  5  7  1  0
  7  8  1  6
  7  9  1  0
  9 10  1  1
  9 11  1  0
 11 12  1  6
M  END
$$$$
../data/sim100/74.pdb
     RDKit          3D

 16 16  0  0  0  0  0  0  0  0999 V2000
   -3.4230    1.5670    0.4000 C   0  0  0  0  0  0  0  0  0  0  0  0
   -2.8630    0.1710    0.3460 C   0  0  0  0  0  0  0  0  0  0  0  0
   -3.2090   -0.5000    1.6710 C   0  0  0  0  0  0  0  0  0  0  0  0
   -3.5150   -0.6050   -0.7690 C   0  0  0  0  0  0  0  0  0  0  0  0
   -1.3750    0.2250    0.1640 C   0  0  0  0  0  0  0  0  0  0  0  0
   -0.7030    1.4060    0.0710 C   0  0  0  0  0  0  0  0  0  0  0  0
    0.6790    1.3780   -0.0960 C   0  0  0  0  0  0  0  0  0  0  0  0
    1.3770    0.2030   -0.1700 C   0  0  0  0  0  0  0  0  0  0  0  0
    2.8330    0.1670   -0.3490 C   0  0  0  0  0  0  0  0  0  0  0  0
    3.1860   -0.5600   -1.6210 C   0  0  0  0  0  0  0  0  0  0  0  0
    3.5510   -0.4280    0.8510 C   0  0  0  0  0  0  0  0  0  0  0  0
    3.4040    1.5820   -0.4880 C   0  0  0  0  0  0  0  0  0  0  0  0
    0.6840   -0.9860   -0.0740 C   0  0  0  0  0  0  0  0  0  0  0  0
    1.3790   -2.2010   -0.1460 O   0  0  0  0  0  0  0  0  0  0  0  0
   -0.6760   -0.9750    0.0910 C   0  0  0  0  0  0  0  0  0  0  0  0
   -1.4040   -2.1480    0.1910 O   0  0  0  0  0  0  0  0  0  0  0  0
  1  2  1  0
  2  3  1  0
  2  4  1  0
  2  5  1  0
  5  6  2  0
  5 15  1  0
  6  7  1  0
  7  8  2  0
  8  9  1  0
  8 13  1  0
  9 10  1  0
  9 11  1  0
  9 12  1  0
 13 14  1  0
 13 15  2  0
 15 16  1  0
M  END
$$$$
../data/sim100/75.pdb
     RDKit          3D

 22 23  0  0  0  0  0  0  0  0999 V2000
   -5.1850   -2.1830    0.2380 O   0  0  0  0  0  0  0  0  0  0  0  0
   -4.7990   -0.9660    0.5250 C   0  0  0  0  0  0  0  0  0  0  0  0
   -3.4080   -0.6460    0.4430 C   0  0  0  0  0  0  0  0  0  0  0  0
   -2.5180   -1.6440    0.0570 C   0  0  0  0  0  0  0  0  0  0  0  0
   -1.1640   -1.4510   -0.0550 C   0  0  0  0  0  0  0  0  0  0  0  0
   -0.6580   -0.2070    0.2290 C   0  0  0  0  0  0  0  0  0  0  0  0
    0.7780    0.0860    0.1350 C   0  0  0  0  0  0  0  0  0  0  0  0
    1.3830    1.0120    0.9490 C   0  0  0  0  0  0  0  0  0  0  0  0
    2.7430    1.2890    0.8590 C   0  0  0  0  0  0  0  0  0  0  0  0
    3.5370    0.6360   -0.0600 C   0  0  0  0  0  0  0  0  0  0  0  0
    4.9620    0.9070   -0.1740 C   0  0  0  0  0  0  0  0  0  0  0  0
    5.5560    1.7450    0.5450 O   0  0  0  0  0  0  0  0  0  0  0  0
    5.7470    0.1620   -1.1860 C   0  0  0  0  0  0  0  0  0  0  0  0
    7.0860    0.5430   -1.1630 O   0  0  0  0  0  0  0  0  0  0  0  0
    5.7090   -1.1860   -0.8460 O   0  0  0  0  0  0  0  0  0  0  0  0
    2.9330   -0.2920   -0.8770 C   0  0  0  0  0  0  0  0  0  0  0  0
    1.5760   -0.5600   -0.7780 C   0  0  0  0  0  0  0  0  0  0  0  0
   -1.5160    0.7950    0.6130 C   0  0  0  0  0  0  0  0  0  0  0  0
   -2.8830    0.5690    0.7170 C   0  0  0  0  0  0  0  0  0  0  0  0
   -5.8950   -0.0670    0.9060 C   0  0  0  0  0  0  0  0  0  0  0  0
   -5.5850    1.2220    1.2150 O   0  0  0  0  0  0  0  0  0  0  0  0
   -6.8570   -0.0540   -0.1280 O   0  0  0  0  0  0  0  0  0  0  0  0
  1  2  2  0
  2  3  1  0
  2 20  1  0
  3  4  2  0
  3 19  1  0
  4  5  1  0
  5  6  2  0
  6  7  1  0
  6 18  1  0
  7  8  2  0
  7 17  1  0
  8  9  1  0
  9 10  2  0
 10 11  1  0
 10 16  1  0
 11 12  2  0
 11 13  1  0
 13 14  1  0
 13 15  1  0
 16 17  2  0
 18 19  2  0
 20 21  1  0
 20 22  1  0
M  END
$$$$
../data/sim100/76.pdb
     RDKit          3D

 19 20  0  0  1  0  0  0  0  0999 V2000
    5.1120    0.8280    0.0460 O   0  0  0  0  0  0  0  0  0  0  0  0
    3.7390    0.8170   -0.1750 C   0  0  2  0  0  0  0  0  0  0  0  0
    2.9980    1.4110    0.9630 C   0  0  0  0  0  0  0  0  0  0  0  0
    1.6940    1.1920    1.0430 C   0  0  0  0  0  0  0  0  0  0  0  0
    0.9890    0.3600    0.0020 C   0  0  2  0  0  0  0  0  0  0  0  0
   -0.2070   -0.1230    0.4860 O   0  0  0  0  0  0  0  0  0  0  0  0
   -1.3110    0.3590   -0.2110 C   0  0  2  0  0  0  0  0  0  0  0  0
   -2.1610    1.1290    0.7470 C   0  0  1  0  0  0  0  0  0  0  0  0
   -1.6380    2.3780    1.0610 O   0  0  0  0  0  0  0  0  0  0  0  0
   -3.5500    1.3480    0.2550 C   0  0  0  0  0  0  0  0  0  0  0  0
   -4.1980    0.2470   -0.1580 C   0  0  0  0  0  0  0  0  0  0  0  0
   -3.3990   -1.0280   -0.0520 C   0  0  1  0  0  0  0  0  0  0  0  0
   -4.0690   -2.0440   -0.7100 O   0  0  0  0  0  0  0  0  0  0  0  0
   -2.1150   -0.7560   -0.8470 C   0  0  2  0  0  0  0  0  0  0  0  0
   -1.3980   -1.9440   -0.9150 O   0  0  0  0  0  0  0  0  0  0  0  0
    1.8230   -0.7840   -0.4730 C   0  0  2  0  0  0  0  0  0  0  0  0
    1.4770   -1.9440    0.2450 O   0  0  0  0  0  0  0  0  0  0  0  0
    3.2910   -0.5950   -0.3430 C   0  0  1  0  0  0  0  0  0  0  0  0
    3.9490   -1.1190   -1.4740 O   0  0  0  0  0  0  0  0  0  0  0  0
  2  1  1  1
  2  3  1  0
  2 18  1  0
  3  4  2  0
  4  5  1  0
  5  6  1  1
  5 16  1  0
  7  6  1  1
  7  8  1  0
  7 14  1  0
  8  9  1  6
  8 10  1  0
 10 11  2  0
 11 12  1  0
 12 13  1  6
 12 14  1  0
 14 15  1  1
 16 17  1  1
 16 18  1  0
 18 19  1  6
M  END
$$$$
../data/sim100/77.pdb
     RDKit          3D

 12 12  0  0  0  0  0  0  0  0999 V2000
   -3.1750    0.7690    0.2130 Br  0  0  0  0  0  0  0  0  0  0  0  0
   -1.3190    0.3170    0.0880 C   0  0  0  0  0  0  0  0  0  0  0  0
   -0.9280   -1.0000   -0.0190 C   0  0  0  0  0  0  0  0  0  0  0  0
   -2.2120   -2.4160   -0.0460 Br  0  0  0  0  0  0  0  0  0  0  0  0
    0.4050   -1.3470   -0.1100 C   0  0  0  0  0  0  0  0  0  0  0  0
    0.9630   -3.1700   -0.2590 Br  0  0  0  0  0  0  0  0  0  0  0  0
    1.3210   -0.3150   -0.0880 C   0  0  0  0  0  0  0  0  0  0  0  0
    3.1770   -0.7630   -0.2130 Br  0  0  0  0  0  0  0  0  0  0  0  0
    0.9270    1.0020    0.0190 C   0  0  0  0  0  0  0  0  0  0  0  0
    2.2090    2.4040    0.0460 Br  0  0  0  0  0  0  0  0  0  0  0  0
   -0.4010    1.3460    0.1090 C   0  0  0  0  0  0  0  0  0  0  0  0
   -0.9680    3.1750    0.2590 Br  0  0  0  0  0  0  0  0  0  0  0  0
  1  2  1  0
  2  3  2  0
  2 11  1  0
  3  4  1  0
  3  5  1  0
  5  6  1  0
  5  7  2  0
  7  8  1  0
  7  9  1  0
  9 10  1  0
  9 11  2  0
 11 12  1  0
M  END
$$$$
../data/sim100/78.pdb
     RDKit          3D

 12 12  0  0  1  0  0  0  0  0999 V2000
    3.0020    0.5670    0.1140 Cl  0  0  0  0  0  0  0  0  0  0  0  0
    1.2770    0.2620    0.2560 C   0  0  2  0  0  0  0  0  0  0  0  0
    0.8560   -1.0100   -0.4510 C   0  0  1  0  0  0  0  0  0  0  0  0
    2.0910   -2.2590   -0.4150 Cl  0  0  0  0  0  0  0  0  0  0  0  0
   -0.4340   -1.4500    0.2490 C   0  0  1  0  0  0  0  0  0  0  0  0
   -0.0020   -2.0330    1.8880 Cl  0  0  0  0  0  0  0  0  0  0  0  0
   -1.3290   -0.2510    0.3030 C   0  0  1  0  0  0  0  0  0  0  0  0
   -1.4170    0.4670    1.9300 Cl  0  0  0  0  0  0  0  0  0  0  0  0
   -0.9250    0.8370   -0.6670 C   0  0  1  0  0  0  0  0  0  0  0  0
   -2.1980    2.1020   -0.5380 Cl  0  0  0  0  0  0  0  0  0  0  0  0
    0.4270    1.3810   -0.3040 C   0  0  1  0  0  0  0  0  0  0  0  0
    0.3270    2.6390    0.9530 Cl  0  0  0  0  0  0  0  0  0  0  0  0
  2  1  1  6
  2  3  1  0
  2 11  1  0
  3  4  1  1
  3  5  1  0
  5  6  1  1
  5  7  1  0
  7  8  1  1
  7  9  1  0
  9 10  1  1
  9 11  1  0
 11 12  1  1
M  END
$$$$
../data/sim100/79.pdb
     RDKit          3D

  6  5  0  0  0  0  0  0  0  0999 V2000
    1.5510    1.4990   -0.3400 Cl  0  0  0  0  0  0  0  0  0  0  0  0
    0.6530    0.0020   -0.1670 C   0  0  0  0  0  0  0  0  0  0  0  0
    1.5340   -1.4880   -0.4510 Cl  0  0  0  0  0  0  0  0  0  0  0  0
   -0.6390   -0.0040    0.1640 C   0  0  0  0  0  0  0  0  0  0  0  0
   -1.5370    1.4710    0.4510 Cl  0  0  0  0  0  0  0  0  0  0  0  0
   -1.5630   -1.4790    0.3440 Cl  0  0  0  0  0  0  0  0  0  0  0  0
  1  2  1  0
  2  3  1  0
  2  4  2  0
  4  5  1  0
  4  6  1  0
M  END
$$$$
../data/sim100/80.pdb
     RDKit          3D

  6  5  0  0  0  0  0  0  0  0999 V2000
    1.7040   -0.2400    0.4690 F   0  0  0  0  0  0  0  0  0  0  0  0
    0.5760    0.2760   -0.1030 C   0  0  0  0  0  0  0  0  0  0  0  0
    0.7180    1.3770   -0.8840 F   0  0  0  0  0  0  0  0  0  0  0  0
   -0.6060   -0.2900    0.1080 C   0  0  0  0  0  0  0  0  0  0  0  0
   -1.6900    0.2660   -0.4860 F   0  0  0  0  0  0  0  0  0  0  0  0
   -0.7020   -1.3890    0.8950 F   0  0  0  0  0  0  0  0  0  0  0  0
  1  2  1  0
  2  3  1  0
  2  4  2  0
  4  5  1  0
  4  6  1  0
M  END
$$$$
../data/sim100/81.pdb
     RDKit          3D

 12 12  0  0  0  0  0  0  0  0999 V2000
   -2.6660   -1.6300    0.0340 Cl  0  0  0  0  0  0  0  0  0  0  0  0
   -1.1730   -0.7020    0.0150 C   0  0  0  0  0  0  0  0  0  0  0  0
    0.0230   -1.3950    0.0300 C   0  0  0  0  0  0  0  0  0  0  0  0
    0.0400   -3.1620    0.0670 Cl  0  0  0  0  0  0  0  0  0  0  0  0
    1.1920   -0.6680    0.0140 C   0  0  0  0  0  0  0  0  0  0  0  0
    2.7260   -1.5460    0.0340 Cl  0  0  0  0  0  0  0  0  0  0  0  0
    1.1660    0.7110   -0.0150 C   0  0  0  0  0  0  0  0  0  0  0  0
    2.6490    1.6040   -0.0330 Cl  0  0  0  0  0  0  0  0  0  0  0  0
   -0.0210    1.4170   -0.0300 C   0  0  0  0  0  0  0  0  0  0  0  0
   -0.0450    3.1700   -0.0670 Cl  0  0  0  0  0  0  0  0  0  0  0  0
   -1.1890    0.6770   -0.0150 C   0  0  0  0  0  0  0  0  0  0  0  0
   -2.7010    1.5260   -0.0330 Cl  0  0  0  0  0  0  0  0  0  0  0  0
  1  2  1  0
  2  3  2  0
  2 11  1  0
  3  4  1  0
  3  5  1  0
  5  6  1  0
  5  7  2  0
  7  8  1  0
  7  9  1  0
  9 10  1  0
  9 11  2  0
 11 12  1  0
M  END
$$$$
../data/sim100/82.pdb
     RDKit          3D

 12 12  0  0  0  0  0  0  0  0999 V2000
    1.8120   -2.1770    0.1010 C   0  0  0  0  0  0  0  0  0  0  0  0
    0.8690   -1.0480    0.0510 C   0  0  0  0  0  0  0  0  0  0  0  0
   -0.5150   -1.2650    0.1170 C   0  0  0  0  0  0  0  0  0  0  0  0
   -0.9840   -2.6240    0.2360 C   0  0  0  0  0  0  0  0  0  0  0  0
   -1.3920   -0.2120    0.0700 C   0  0  0  0  0  0  0  0  0  0  0  0
   -2.8160   -0.4560    0.1400 C   0  0  0  0  0  0  0  0  0  0  0  0
   -0.9000    1.0700   -0.0430 C   0  0  0  0  0  0  0  0  0  0  0  0
   -1.8330    2.2060   -0.0950 C   0  0  0  0  0  0  0  0  0  0  0  0
    0.4830    1.3020   -0.1110 C   0  0  0  0  0  0  0  0  0  0  0  0
    1.0410    2.6670   -0.2330 C   0  0  0  0  0  0  0  0  0  0  0  0
    1.3610    0.2260   -0.0620 C   0  0  0  0  0  0  0  0  0  0  0  0
    2.8070    0.4350   -0.1300 C   0  0  0  0  0  0  0  0  0  0  0  0
  1  2  1  0
  2  3  2  0
  2 11  1  0
  3  4  1  0
  3  5  1  0
  5  6  1  0
  5  7  2  0
  7  8  1  0
  7  9  1  0
  9 10  1  0
  9 11  2  0
 11 12  1  0
M  END
$$$$
../data/sim100/83.pdb
     RDKit          3D

  4  3  0  0  0  0  0  0  0  0999 V2000
    1.8860   -0.0170   -0.0250 C   0  0  0  0  0  0  0  0  0  0  0  0
    0.4950    0.3520    0.4890 C   0  0  0  0  0  0  0  0  0  0  0  0
   -0.4890   -0.3480   -0.4480 C   0  0  0  0  0  0  0  0  0  0  0  0
   -1.8780   -0.0010    0.0380 C   0  0  0  0  0  0  0  0  0  0  0  0
  1  2  1  0
  2  3  1  0
  3  4  1  0
M  END
$$$$
../data/sim100/84.pdb
     RDKit          3D

 12 12  0  0  1  0  0  0  0  0999 V2000
   -1.7640   -2.6400    0.1430 Br  0  0  0  0  0  0  0  0  0  0  0  0
   -0.6520   -1.1740   -0.5220 C   0  0  1  0  0  0  0  0  0  0  0  0
   -1.4180    0.0950   -0.2220 C   0  0  1  0  0  0  0  0  0  0  0  0
   -2.0030    0.0800    1.6130 Br  0  0  0  0  0  0  0  0  0  0  0  0
   -0.5620    1.3000   -0.4810 C   0  0  2  0  0  0  0  0  0  0  0  0
   -0.3070    1.6200   -2.3660 Br  0  0  0  0  0  0  0  0  0  0  0  0
    0.7120    1.2460    0.2860 C   0  0  1  0  0  0  0  0  0  0  0  0
    0.2610    1.5490    2.1610 Br  0  0  0  0  0  0  0  0  0  0  0  0
    1.4700   -0.0280    0.1860 C   0  0  2  0  0  0  0  0  0  0  0  0
    2.6980   -0.0300   -1.3300 Br  0  0  0  0  0  0  0  0  0  0  0  0
    0.6360   -1.2650    0.2290 C   0  0  1  0  0  0  0  0  0  0  0  0
    0.1790   -1.5900    2.1020 Br  0  0  0  0  0  0  0  0  0  0  0  0
  2  1  1  1
  2  3  1  0
  2 11  1  0
  3  4  1  1
  3  5  1  0
  5  6  1  6
  5  7  1  0
  7  8  1  1
  7  9  1  0
  9 10  1  6
  9 11  1  0
 11 12  1  1
M  END
$$$$
../data/sim100/85.pdb
     RDKit          3D

  6  5  0  0  0  0  0  0  0  0999 V2000
    1.1080    0.9700   -1.3820 Cl  0  0  0  0  0  0  0  0  0  0  0  0
    0.7070   -0.2240   -0.1420 C   0  0  0  0  0  0  0  0  0  0  0  0
    1.8150   -0.0550    1.1980 Cl  0  0  0  0  0  0  0  0  0  0  0  0
   -0.7420   -0.0420    0.2330 C   0  0  0  0  0  0  0  0  0  0  0  0
   -0.9260    1.6160    0.8550 Cl  0  0  0  0  0  0  0  0  0  0  0  0
   -1.7390   -0.3070   -1.2190 Cl  0  0  0  0  0  0  0  0  0  0  0  0
  1  2  1  0
  2  3  1  0
  2  4  1  0
  4  5  1  0
  4  6  1  0
M  END
$$$$
../data/sim100/86.pdb
     RDKit          3D

  4  3  0  0  0  0  0  0  0  0999 V2000
    1.7660   -0.2200    0.6040 C   0  0  0  0  0  0  0  0  0  0  0  0
    0.4790   -0.3290    0.8540 C   0  0  0  0  0  0  0  0  0  0  0  0
   -0.5000    0.3290   -0.0130 C   0  0  0  0  0  0  0  0  0  0  0  0
   -1.7980    0.2230    0.2340 C   0  0  0  0  0  0  0  0  0  0  0  0
  1  2  2  0
  2  3  1  0
  3  4  2  0
M  END
$$$$
../data/sim100/87.pdb
     RDKit          3D

  6  5  0  0  0  0  0  0  0  0999 V2000
    1.6150   -0.9540    0.0340 C   0  0  0  0  0  0  0  0  0  0  0  0
    0.5740    0.0530    0.4720 C   0  0  0  0  0  0  0  0  0  0  0  0
    1.2300    1.3630    0.6580 C   0  0  0  0  0  0  0  0  0  0  0  0
   -0.5840    0.0120   -0.4640 C   0  0  0  0  0  0  0  0  0  0  0  0
   -1.1990   -1.3730   -0.4640 C   0  0  0  0  0  0  0  0  0  0  0  0
   -1.6550    0.9980   -0.2280 C   0  0  0  0  0  0  0  0  0  0  0  0
  1  2  1  0
  2  3  1  0
  2  4  1  0
  4  5  1  0
  4  6  1  0
M  END
$$$$
../data/sim100/88.pdb
     RDKit          3D

  4  3  0  0  0  0  0  0  0  0999 V2000
    2.0920    0.2910    0.0700 C   0  0  0  0  0  0  0  0  0  0  0  0
    1.0020   -0.2060    1.4470 S   0  0  0  0  0  0  0  0  0  0  0  0
   -0.9130    0.7010    1.2370 S   0  0  0  0  0  0  0  0  0  0  0  0
   -2.0380   -0.3290    0.2810 C   0  0  0  0  0  0  0  0  0  0  0  0
  1  2  1  0
  2  3  1  0
  3  4  1  0
M  END
$$$$
../data/sim100/90.pdb
     RDKit          3D

  6  5  0  0  0  0  0  0  0  0999 V2000
   -1.2610   -1.3790   -0.9480 O   0  0  0  0  0  0  0  0  0  0  0  0
   -1.6790   -0.2280   -0.3450 C   0  0  0  0  0  0  0  0  0  0  0  0
   -0.7720    0.9270   -0.3210 C   0  0  0  0  0  0  0  0  0  0  0  0
    0.5370    0.7910    0.3540 C   0  0  0  0  0  0  0  0  0  0  0  0
    1.3930   -0.2890   -0.2660 C   0  0  0  0  0  0  0  0  0  0  0  0
    2.6110   -0.3180    0.4470 O   0  0  0  0  0  0  0  0  0  0  0  0
  1  2  1  0
  2  3  1  0
  3  4  1  0
  4  5  1  0
  5  6  1  0
M  END
$$$$
../data/sim100/91.pdb
     RDKit          3D

  5  4  0  0  0  0  0  0  0  0999 V2000
   -0.7220    1.2520    0.9110 O   0  0  0  0  0  0  0  0  0  0  0  0
   -1.2600    0.3450    0.0180 C   0  0  0  0  0  0  0  0  0  0  0  0
   -0.1530   -0.1040   -0.9230 C   0  0  0  0  0  0  0  0  0  0  0  0
    0.9130   -0.7420   -0.0410 C   0  0  0  0  0  0  0  0  0  0  0  0
    1.3890    0.1920    0.8810 O   0  0  0  0  0  0  0  0  0  0  0  0
  1  2  1  0
  2  3  1  0
  3  4  1  0
  4  5  1  0
M  END
$$$$
../data/sim100/92.pdb
     RDKit          3D

  4  3  0  0  0  0  0  0  0  0999 V2000
   -1.2310    0.0920   -0.4370 C   0  0  0  0  0  0  0  0  0  0  0  0
   -0.1450    0.5010    0.5480 C   0  0  0  0  0  0  0  0  0  0  0  0
    0.9660   -0.5070    0.4190 C   0  0  0  0  0  0  0  0  0  0  0  0
    1.5170   -0.5780   -0.8280 O   0  0  0  0  0  0  0  0  0  0  0  0
  1  2  1  0
  2  3  1  0
  3  4  1  0
M  END
$$$$
../data/sim100/93.pdb
     RDKit          3D

 12 12  0  0  1  0  0  0  0  0999 V2000
    2.4610   -1.3130    0.3230 O   0  0  0  0  0  0  0  0  0  0  0  0
    1.2440   -0.6830    0.3260 C   0  0  1  0  0  0  0  0  0  0  0  0
    1.3230    0.7370   -0.2080 C   0  0  2  0  0  0  0  0  0  0  0  0
    2.0480    1.5700    0.6550 O   0  0  0  0  0  0  0  0  0  0  0  0
    0.0100    1.2960   -0.6100 C   0  0  1  0  0  0  0  0  0  0  0  0
   -0.1050    1.4910   -2.3950 Cl  0  0  0  0  0  0  0  0  0  0  0  0
   -1.1940    0.5860   -0.1290 C   0  0  1  0  0  0  0  0  0  0  0  0
   -2.2720    0.9270   -0.9810 O   0  0  0  0  0  0  0  0  0  0  0  0
   -1.1160   -0.8950   -0.1000 C   0  0  1  0  0  0  0  0  0  0  0  0
   -2.0810   -1.5530   -0.8120 O   0  0  0  0  0  0  0  0  0  0  0  0
    0.2410   -1.3820   -0.6040 C   0  0  2  0  0  0  0  0  0  0  0  0
    0.3800   -3.1240   -0.5450 Cl  0  0  0  0  0  0  0  0  0  0  0  0
  2  1  1  6
  2  3  1  0
  2 11  1  0
  3  4  1  1
  3  5  1  0
  5  6  1  6
  5  7  1  0
  7  8  1  6
  7  9  1  0
  9 10  1  6
  9 11  1  0
 11 12  1  1
M  END
$$$$
../data/sim100/94.pdb
     RDKit          3D

  5  5  0  0  0  0  0  0  0  0999 V2000
    1.8450    0.3340    0.8190 O   0  0  0  0  0  0  0  0  0  0  0  0
    0.6440    0.5710    0.2170 C   0  0  0  0  0  0  0  0  0  0  0  0
    0.2360   -0.4210   -0.8690 C   0  0  0  0  0  0  0  0  0  0  0  0
   -1.2010   -0.1340   -0.4080 C   0  0  0  0  0  0  0  0  0  0  0  0
   -0.5790    0.0390    0.9800 C   0  0  0  0  0  0  0  0  0  0  0  0
  1  2  1  0
  2  3  1  0
  2  5  1  0
  3  4  1  0
  4  5  1  0
M  END
$$$$
../data/sim100/95.pdb
     RDKit          3D

  7  7  0  0  1  0  0  0  0  0999 V2000
   -1.3680   -1.3160   -0.8890 O   0  0  0  0  0  0  0  0  0  0  0  0
   -0.7050   -0.8810    0.2340 C   0  0  1  0  0  0  0  0  0  0  0  0
    0.7820   -1.2050    0.1280 C   0  0  0  0  0  0  0  0  0  0  0  0
    1.3910    0.0740   -0.4250 C   0  0  0  0  0  0  0  0  0  0  0  0
    0.6040    1.1500    0.3160 C   0  0  0  0  0  0  0  0  0  0  0  0
   -0.7870    0.5950    0.4700 C   0  0  1  0  0  0  0  0  0  0  0  0
   -1.7210    1.2350   -0.3340 O   0  0  0  0  0  0  0  0  0  0  0  0
  2  1  1  6
  2  3  1  0
  2  6  1  0
  3  4  1  0
  4  5  1  0
  5  6  1  0
  6  7  1  6
M  END
$$$$
../data/sim100/96.pdb
     RDKit          3D

  7  6  0  0  0  0  0  0  0  0999 V2000
    1.4300    0.2230    0.8520 O   0  0  0  0  0  0  0  0  0  0  0  0
    0.3260   -0.4690    0.3860 C   0  0  0  0  0  0  0  0  0  0  0  0
    0.6210   -1.3250   -0.6480 O   0  0  0  0  0  0  0  0  0  0  0  0
   -0.7280    0.5380   -0.0220 C   0  0  0  0  0  0  0  0  0  0  0  0
   -1.2130    1.5550    1.3530 Cl  0  0  0  0  0  0  0  0  0  0  0  0
   -2.2020   -0.2790   -0.6120 Cl  0  0  0  0  0  0  0  0  0  0  0  0
   -0.1230    1.5270   -1.3720 Cl  0  0  0  0  0  0  0  0  0  0  0  0
  1  2  1  0
  2  3  1  0
  2  4  1  0
  4  5  1  0
  4  6  1  0
  4  7  1  0
M  END
$$$$
../data/sim100/97.pdb
     RDKit          3D

  5  4  0  0  0  0  0  0  0  0999 V2000
   -1.3860    0.7230    0.3880 O   0  0  0  0  0  0  0  0  0  0  0  0
   -0.5540   -0.4120    0.3200 C   0  0  0  0  0  0  0  0  0  0  0  0
    0.7440    0.0500   -0.3300 C   0  0  0  0  0  0  0  0  0  0  0  0
    1.8490   -1.3410   -0.4500 Cl  0  0  0  0  0  0  0  0  0  0  0  0
    1.4420    1.2380    0.7980 Cl  0  0  0  0  0  0  0  0  0  0  0  0
  1  2  1  0
  2  3  1  0
  3  4  1  0
  3  5  1  0
M  END
$$$$
../data/sim100/98.pdb
     RDKit          3D

  5  4  0  0  0  0  0  0  0  0999 V2000
   -1.4960   -0.4690    0.0540 C   0  0  0  0  0  0  0  0  0  0  0  0
   -0.1670    0.0550   -0.4610 C   0  0  0  0  0  0  0  0  0  0  0  0
    0.0270    1.4260    0.1400 C   0  0  0  0  0  0  0  0  0  0  0  0
    0.8960   -0.9230   -0.0200 C   0  0  0  0  0  0  0  0  0  0  0  0
    2.1430   -0.4970   -0.4630 O   0  0  0  0  0  0  0  0  0  0  0  0
  1  2  1  0
  2  3  1  0
  2  4  1  0
  4  5  1  0
M  END
$$$$
../data/sim100/99.pdb
     RDKit          3D

  8  7  0  0  0  0  0  0  0  0999 V2000
    1.5530   -1.0100    1.0730 C   0  0  0  0  0  0  0  0  0  0  0  0
    1.3500   -0.3320   -0.2330 C   0  0  0  0  0  0  0  0  0  0  0  0
    1.9380    1.0750   -0.2370 C   0  0  0  0  0  0  0  0  0  0  0  0
   -0.0330   -0.2860   -0.7550 C   0  0  0  0  0  0  0  0  0  0  0  0
    0.0180    0.3940   -2.0010 O   0  0  0  0  0  0  0  0  0  0  0  0
   -1.0390    0.4540    0.0590 C   0  0  0  0  0  0  0  0  0  0  0  0
   -2.3520    0.3300   -0.7460 C   0  0  0  0  0  0  0  0  0  0  0  0
   -1.3600   -0.1720    1.3970 C   0  0  0  0  0  0  0  0  0  0  0  0
  1  2  1  0
  2  3  1  0
  2  4  1  0
  4  5  1  0
  4  6  1  0
  6  7  1  0
  6  8  1  0
M  END
$$$$
