../data/sim100/2.pdb
     RDKit          3D

 10 10  0  0  1  0  0  0  0  0999 V2000
   -0.9970   -1.2350    1.4500 O   0  0  0  0  0  0  0  0  0  0  0  0
   -1.3520   -0.2500    0.5030 C   0  0  2  0  0  0  0  0  0  0  0  0
   -1.1690   -0.8720   -0.8320 C   0  0  0  0  0  0  0  0  0  0  0  0
    0.0700   -0.9820   -1.2650 C   0  0  0  0  0  0  0  0  0  0  0  0
    1.1820   -0.5060   -0.4510 C   0  0  1  0  0  0  0  0  0  0  0  0
    2.3020   -0.3390   -1.2680 O   0  0  0  0  0  0  0  0  0  0  0  0
    0.9350    0.7660    0.2940 C   0  0  2  0  0  0  0  0  0  0  0  0
    1.7280    0.8670    1.4370 O   0  0  0  0  0  0  0  0  0  0  0  0
   -0.4860    0.9580    0.7330 C   0  0  1  0  0  0  0  0  0  0  0  0
   -1.0710    2.0210    0.0460 O   0  0  0  0  0  0  0  0  0  0  0  0
  2  1  1  1
  2  3  1  0
  2  9  1  0
  3  4  2  0
  4  5  1  0
  5  6  1  6
  5  7  1  0
  7  8  1  1
  7  9  1  0
  9 10  1  6
M  END
$$$$
../data/sim100/3.pdb
     RDKit          3D

 12 12  0  0  1  0  0  0  0  0999 V2000
    0.1900   -2.3740    0.8270 O   0  0  0  0  0  0  0  0  0  0  0  0
    0.1410   -1.4650   -0.2570 C   0  0  1  0  0  0  0  0  0  0  0  0
   -1.1670   -0.7940   -0.2780 C   0  0  1  0  0  0  0  0  0  0  0  0
   -1.8180   -0.9860    0.9650 O   0  0  0  0  0  0  0  0  0  0  0  0
   -1.2140    0.6320   -0.6470 C   0  0  1  0  0  0  0  0  0  0  0  0
   -2.3160    1.2170    0.0250 O   0  0  0  0  0  0  0  0  0  0  0  0
   -0.0290    1.4590   -0.3660 C   0  0  1  0  0  0  0  0  0  0  0  0
   -0.3470    2.6210    0.3780 O   0  0  0  0  0  0  0  0  0  0  0  0
    1.0770    0.7750    0.3740 C   0  0  2  0  0  0  0  0  0  0  0  0
    2.2500    1.5370    0.1540 O   0  0  0  0  0  0  0  0  0  0  0  0
    1.3400   -0.5930   -0.1450 C   0  0  1  0  0  0  0  0  0  0  0  0
    2.3180   -1.1710    0.6840 O   0  0  0  0  0  0  0  0  0  0  0  0
  2  1  1  1
  2  3  1  0
  2 11  1  0
  3  4  1  1
  3  5  1  0
  5  6  1  1
  5  7  1  0
  7  8  1  1
  7  9  1  0
  9 10  1  6
  9 11  1  0
 11 12  1  1
M  END
$$$$
../data/sim100/4.pdb
     RDKit          3D

  4  3  0  0  0  0  0  0  0  0999 V2000
   -1.4230   -1.0990   -0.5370 Br  0  0  0  0  0  0  0  0  0  0  0  0
    0.0130   -0.0110    0.1740 C   0  0  0  0  0  0  0  0  0  0  0  0
   -0.2580    1.8010   -0.4390 Br  0  0  0  0  0  0  0  0  0  0  0  0
    1.7180   -0.6180   -0.4760 Br  0  0  0  0  0  0  0  0  0  0  0  0
  1  2  1  0
  2  3  1  0
  2  4  1  0
M  END
$$$$
../data/sim100/5.pdb
     RDKit          3D

  4  3  0  0  0  0  0  0  0  0999 V2000
   -1.1030   -0.5230    0.0750 C   0  0  0  0  0  0  0  0  0  0  0  0
    0.0750    0.3320    0.4750 C   0  0  0  0  0  0  0  0  0  0  0  0
    1.3100   -0.2490   -0.1720 C   0  0  0  0  0  0  0  0  0  0  0  0
   -0.1250    1.5920   -0.1130 O   0  0  0  0  0  0  0  0  0  0  0  0
  1  2  1  0
  2  3  1  0
  2  4  1  0
M  END
$$$$
../data/sim100/6.pdb
     RDKit          3D

  4  3  0  0  0  0  0  0  0  0999 V2000
   -0.2750    0.0030    0.7200 C   0  0  0  0  0  0  0  0  0  0  0  0
    0.1950   -0.0160   -0.4960 C   0  0  0  0  0  0  0  0  0  0  0  0
    1.0390   -1.3740   -1.1900 Cl  0  0  0  0  0  0  0  0  0  0  0  0
   -0.0210    1.3890   -1.5050 Cl  0  0  0  0  0  0  0  0  0  0  0  0
  1  2  2  0
  2  3  1  0
  2  4  1  0
M  END
$$$$
../data/sim100/7.pdb
     RDKit          3D

  4  3  0  0  0  0  0  0  0  0999 V2000
    0.7100   -0.0470    0.0240 C   0  0  0  0  0  0  0  0  0  0  0  0
   -0.6060    0.0460   -0.0320 C   0  0  0  0  0  0  0  0  0  0  0  0
   -1.3420   -0.4920    0.9700 F   0  0  0  0  0  0  0  0  0  0  0  0
   -1.2470    0.6620   -1.0580 F   0  0  0  0  0  0  0  0  0  0  0  0
  1  2  2  0
  2  3  1  0
  2  4  1  0
M  END
$$$$
../data/sim100/8.pdb
     RDKit          3D

  4  3  0  0  0  0  0  0  0  0999 V2000
    1.2300   -0.2930   -0.0860 C   0  0  0  0  0  0  0  0  0  0  0  0
    0.0270    0.5800    0.1140 C   0  0  0  0  0  0  0  0  0  0  0  0
   -1.2320   -0.2840    0.0720 C   0  0  0  0  0  0  0  0  0  0  0  0
   -0.0630    2.0230   -1.1600 Br  0  0  0  0  0  0  0  0  0  0  0  0
  1  2  1  0
  2  3  1  0
  2  4  1  0
M  END
$$$$
../data/sim100/9.pdb
     RDKit          3D

 10 10  0  0  1  0  0  0  0  0999 V2000
   -1.6670   -1.4960    0.5070 C   0  0  0  0  0  0  0  0  0  0  0  0
   -0.7730   -0.3430    0.2450 C   0  0  0  0  0  0  0  0  0  0  0  0
    0.4710   -0.5520   -0.1290 C   0  0  0  0  0  0  0  0  0  0  0  0
    0.9390   -1.9550   -0.2760 C   0  0  0  0  0  0  0  0  0  0  0  0
    1.4100    0.5340   -0.4050 C   0  0  2  0  0  0  0  0  0  0  0  0
    2.6680    0.2600    0.1820 O   0  0  0  0  0  0  0  0  0  0  0  0
    0.9570    1.8620   -0.0080 C   0  0  0  0  0  0  0  0  0  0  0  0
   -0.2870    2.0820    0.3650 C   0  0  0  0  0  0  0  0  0  0  0  0
   -1.3230    1.0210    0.4170 C   0  0  1  0  0  0  0  0  0  0  0  0
   -2.3130    1.2140   -0.5450 O   0  0  0  0  0  0  0  0  0  0  0  0
  1  2  1  0
  2  3  2  0
  2  9  1  0
  3  4  1  0
  3  5  1  0
  5  6  1  1
  5  7  1  0
  7  8  2  0
  8  9  1  0
  9 10  1  6
M  END
$$$$
../data/sim100/10.pdb
     RDKit          3D

 10 10  0  0  1  0  0  0  0  0999 V2000
    2.4300   -0.6750    0.5630 N   0  0  0  0  0  0  0  0  0  0  0  0
    1.0100   -0.6240    0.3950 C   0  0  2  0  0  0  0  0  0  0  0  0
    0.5130   -1.5180   -0.6840 C   0  0  0  0  0  0  0  0  0  0  0  0
   -0.7120   -1.3030   -1.1480 C   0  0  0  0  0  0  0  0  0  0  0  0
   -1.6050   -0.2270   -0.6530 C   0  0  1  0  0  0  0  0  0  0  0  0
   -2.7370   -0.7670   -0.0060 O   0  0  0  0  0  0  0  0  0  0  0  0
   -0.9530    0.7640    0.2480 C   0  0  2  0  0  0  0  0  0  0  0  0
   -1.5350    2.0120    0.0560 O   0  0  0  0  0  0  0  0  0  0  0  0
    0.5320    0.7780   -0.0130 C   0  0  1  0  0  0  0  0  0  0  0  0
    1.2020    1.7480    0.7170 O   0  0  0  0  0  0  0  0  0  0  0  0
  2  1  1  6
  2  3  1  0
  2  9  1  0
  3  4  2  0
  4  5  1  0
  5  6  1  1
  5  7  1  0
  7  8  1  6
  7  9  1  0
  9 10  1  1
M  CHG  1   1   1
M  END
$$$$
../data/sim100/11.pdb
     RDKit          3D

 19 20  0  0  1  0  0  0  0  0999 V2000
   -4.6260   -1.9170   -0.3500 O   0  0  0  0  0  0  0  0  0  0  0  0
   -3.9160   -0.8030   -0.8070 C   0  0  2  0  0  0  0  0  0  0  0  0
   -2.8340   -1.2920   -1.6900 C   0  0  0  0  0  0  0  0  0  0  0  0
   -1.5540   -0.9760   -1.5490 C   0  0  0  0  0  0  0  0  0  0  0  0
   -1.0610   -0.0800   -0.4660 C   0  0  1  0  0  0  0  0  0  0  0  0
    0.0330    0.6530   -0.8480 O   0  0  0  0  0  0  0  0  0  0  0  0
    1.0650    0.4640    0.0350 C   0  0  2  0  0  0  0  0  0  0  0  0
    1.5710    1.7570    0.6020 C   0  0  0  0  0  0  0  0  0  0  0  0
    2.8590    1.9550    0.8350 C   0  0  0  0  0  0  0  0  0  0  0  0
    3.9400    0.9670    0.5800 C   0  0  1  0  0  0  0  0  0  0  0  0
    4.7820    0.9860    1.6850 O   0  0  0  0  0  0  0  0  0  0  0  0
    3.3010   -0.3920    0.4140 C   0  0  2  0  0  0  0  0  0  0  0  0
    4.2220   -1.3580    0.0560 O   0  0  0  0  0  0  0  0  0  0  0  0
    2.2400   -0.2020   -0.6790 C   0  0  1  0  0  0  0  0  0  0  0  0
    1.8770   -1.4070   -1.2440 O   0  0  0  0  0  0  0  0  0  0  0  0
   -2.2480    0.8220   -0.1010 C   0  0  2  0  0  0  0  0  0  0  0  0
   -1.8460    1.7230    0.8520 O   0  0  0  0  0  0  0  0  0  0  0  0
   -3.3240   -0.1380    0.4220 C   0  0  2  0  0  0  0  0  0  0  0  0
   -2.6920   -1.1380    1.1540 O   0  0  0  0  0  0  0  0  0  0  0  0
  2  1  1  1
  2  3  1  0
  2 18  1  0
  3  4  2  0
  4  5  1  0
  5  6  1  6
  5 16  1  0
  7  6  1  6
  7  8  1  0
  7 14  1  0
  8  9  2  0
  9 10  1  0
 10 11  1  1
 10 12  1  0
 12 13  1  6
 12 14  1  0
 14 15  1  1
 16 17  1  1
 16 18  1  0
 18 19  1  1
M  END
$$$$
../data/sim100/12.pdb
     RDKit          3D

 13 13  0  0  1  0  0  0  0  0999 V2000
    2.0010    1.3670    1.4070 C   0  0  0  0  0  0  0  0  0  0  0  0
    1.9370    0.3250    0.6160 C   0  0  0  0  0  0  0  0  0  0  0  0
    0.8740   -0.5660    0.6190 O   0  0  0  0  0  0  0  0  0  0  0  0
   -0.2060   -0.3170   -0.2930 C   0  0  2  0  0  0  0  0  0  0  0  0
   -0.7270    1.0000    0.0740 C   0  0  0  0  0  0  0  0  0  0  0  0
   -1.9770    1.2150    0.3850 C   0  0  0  0  0  0  0  0  0  0  0  0
   -2.9550    0.1490    0.3890 C   0  0  0  0  0  0  0  0  0  0  0  0
   -2.5730   -1.0510    0.0740 C   0  0  0  0  0  0  0  0  0  0  0  0
   -1.2010   -1.3960   -0.2880 C   0  0  1  0  0  0  0  0  0  0  0  0
   -1.2840   -1.9380   -1.6060 O   0  0  0  0  0  0  0  0  0  0  0  0
    3.0160    0.0690   -0.3150 C   0  0  0  0  0  0  0  0  0  0  0  0
    3.9920    0.8810   -0.3220 O   0  0  0  0  0  0  0  0  0  0  0  0
    3.0070   -1.0250   -1.1860 O   0  0  0  0  0  0  0  0  0  0  0  0
  1  2  2  0
  2  3  1  0
  2 11  1  0
  4  3  1  1
  4  5  1  0
  4  9  1  0
  5  6  2  0
  6  7  1  0
  7  8  2  0
  8  9  1  0
  9 10  1  6
 11 12  2  0
 11 13  1  0
M  END
$$$$
../data/sim100/13.pdb
     RDKit          3D

  6  6  0  0  0  0  0  0  0  0999 V2000
    1.2910   -0.4490    0.0070 C   0  0  0  0  0  0  0  0  0  0  0  0
    0.2810   -1.3660   -0.0050 C   0  0  0  0  0  0  0  0  0  0  0  0
   -1.0110   -0.9250   -0.0110 C   0  0  0  0  0  0  0  0  0  0  0  0
   -1.2890    0.4370   -0.0070 C   0  0  0  0  0  0  0  0  0  0  0  0
   -0.2760    1.3620    0.0050 C   0  0  0  0  0  0  0  0  0  0  0  0
    1.0130    0.9240    0.0110 C   0  0  0  0  0  0  0  0  0  0  0  0
  1  2  2  0
  1  6  1  0
  2  3  1  0
  3  4  2  0
  4  5  1  0
  5  6  2  0
M  END
$$$$
../data/sim100/14.pdb
     RDKit          3D

  2  1  0  0  0  0  0  0  0  0999 V2000
   -0.3310    0.4470   -0.0000 O   0  0  0  0  0  0  0  0  0  0  0  0
    1.2780   -0.1240    0.0000 Cl  0  0  0  0  0  0  0  0  0  0  0  0
  1  2  1  0
M  END
$$$$
../data/sim100/15.pdb
     RDKit          3D

  4  3  0  0  0  0  0  0  0  0999 V2000
   -1.1910    0.8500    0.4820 O   0  0  0  0  0  0  0  0  0  0  0  0
   -0.8090   -0.3600   -0.0750 C   0  0  0  0  0  0  0  0  0  0  0  0
    0.7160   -0.4270    0.0610 C   0  0  0  0  0  0  0  0  0  0  0  0
    1.3210    0.6140   -0.5980 O   0  0  0  0  0  0  0  0  0  0  0  0
  1  2  1  0
  2  3  1  0
  3  4  1  0
M  END
$$$$
../data/sim100/16.pdb
     RDKit          3D

  6  5  0  0  0  0  0  0  0  0999 V2000
    1.7050   -0.6790   -1.4580 Br  0  0  0  0  0  0  0  0  0  0  0  0
    0.7620    0.1710   -0.0290 C   0  0  0  0  0  0  0  0  0  0  0  0
    1.1610   -0.7970    1.6150 Br  0  0  0  0  0  0  0  0  0  0  0  0
   -0.7340    0.1570   -0.2080 C   0  0  0  0  0  0  0  0  0  0  0  0
   -1.3790   -1.6800   -0.3110 Br  0  0  0  0  0  0  0  0  0  0  0  0
   -1.5110    0.9050    1.4030 Br  0  0  0  0  0  0  0  0  0  0  0  0
  1  2  1  0
  2  3  1  0
  2  4  1  0
  4  5  1  0
  4  6  1  0
M  END
$$$$
../data/sim100/17.pdb
     RDKit          3D

  6  5  0  0  1  0  0  0  0  0999 V2000
    1.4750   -0.7170    0.1200 C   0  0  0  0  0  0  0  0  0  0  0  0
    0.6520    0.2870   -0.6250 C   0  0  2  0  0  0  0  0  0  0  0  0
    1.2450    1.5430   -0.4880 O   0  0  0  0  0  0  0  0  0  0  0  0
   -0.7530    0.4030   -0.1090 C   0  0  2  0  0  0  0  0  0  0  0  0
   -1.5410   -0.8610   -0.1900 C   0  0  0  0  0  0  0  0  0  0  0  0
   -1.4050    1.3650   -0.8830 O   0  0  0  0  0  0  0  0  0  0  0  0
  2  1  1  1
  2  3  1  0
  2  4  1  0
  4  5  1  6
  4  6  1  0
M  END
$$$$
../data/sim100/18.pdb
     RDKit          3D

 12 12  0  0  1  0  0  0  0  0999 V2000
    2.5160    0.9130    0.3600 O   0  0  0  0  0  0  0  0  0  0  0  0
    1.3890    0.4580   -0.3650 C   0  0  1  0  0  0  0  0  0  0  0  0
    1.1820   -0.9740   -0.0510 C   0  0  2  0  0  0  0  0  0  0  0  0
    1.5000   -1.7380   -1.2000 O   0  0  0  0  0  0  0  0  0  0  0  0
   -0.1690   -1.3530    0.4130 C   0  0  1  0  0  0  0  0  0  0  0  0
   -0.2330   -1.2760    1.8090 F   0  0  0  0  0  0  0  0  0  0  0  0
   -1.3090   -0.5940   -0.1370 C   0  0  1  0  0  0  0  0  0  0  0  0
   -2.4140   -0.8200    0.7210 O   0  0  0  0  0  0  0  0  0  0  0  0
   -1.0950    0.8550   -0.3500 C   0  0  1  0  0  0  0  0  0  0  0  0
   -2.0030    1.5750    0.4580 O   0  0  0  0  0  0  0  0  0  0  0  0
    0.2640    1.3650   -0.0500 C   0  0  1  0  0  0  0  0  0  0  0  0
    0.3580    1.8110    1.2740 F   0  0  0  0  0  0  0  0  0  0  0  0
  2  1  1  1
  2  3  1  0
  2 11  1  0
  3  4  1  6
  3  5  1  0
  5  6  1  1
  5  7  1  0
  7  8  1  1
  7  9  1  0
  9 10  1  1
  9 11  1  0
 11 12  1  1
M  END
$$$$
../data/sim100/19.pdb
     RDKit          3D

  8  7  0  0  1  0  0  0  0  0999 V2000
   -2.7340    0.5190    0.8130 O   0  0  0  0  0  0  0  0  0  0  0  0
   -1.5310   -0.2130    0.7860 C   0  0  0  0  0  0  0  0  0  0  0  0
   -0.6360    0.4660   -0.2120 C   0  0  2  0  0  0  0  0  0  0  0  0
   -1.2640    0.4530   -1.4620 O   0  0  0  0  0  0  0  0  0  0  0  0
    0.6980   -0.1930   -0.3700 C   0  0  1  0  0  0  0  0  0  0  0  0
    1.4260    0.5380   -1.3080 O   0  0  0  0  0  0  0  0  0  0  0  0
    1.4490   -0.2630    0.9440 C   0  0  0  0  0  0  0  0  0  0  0  0
    2.6820   -0.8920    0.7050 O   0  0  0  0  0  0  0  0  0  0  0  0
  1  2  1  0
  2  3  1  0
  3  4  1  6
  3  5  1  0
  5  6  1  6
  5  7  1  0
  7  8  1  0
M  END
$$$$
../data/sim100/21.pdb
     RDKit          3D

 12 12  0  0  1  0  0  0  0  0999 V2000
    0.6950    2.4170    0.6670 O   0  0  0  0  0  0  0  0  0  0  0  0
    0.2850    1.1070    0.5690 C   0  0  1  0  0  0  0  0  0  0  0  0
   -0.9680    0.9330   -0.2280 C   0  0  1  0  0  0  0  0  0  0  0  0
   -0.9330    1.9380   -1.2260 O   0  0  0  0  0  0  0  0  0  0  0  0
   -1.1820   -0.4030   -0.8070 C   0  0  2  0  0  0  0  0  0  0  0  0
   -2.5320   -0.7630   -0.5720 O   0  0  0  0  0  0  0  0  0  0  0  0
   -0.3270   -1.5110   -0.3800 C   0  0  1  0  0  0  0  0  0  0  0  0
   -0.0170   -2.3460   -1.4660 F   0  0  0  0  0  0  0  0  0  0  0  0
    0.9670   -1.1630    0.2660 C   0  0  2  0  0  0  0  0  0  0  0  0
    0.7970   -1.1490    1.6680 O   0  0  0  0  0  0  0  0  0  0  0  0
    1.3460    0.2550   -0.1220 C   0  0  2  0  0  0  0  0  0  0  0  0
    2.6200    0.5810    0.3370 O   0  0  0  0  0  0  0  0  0  0  0  0
  2  1  1  6
  2  3  1  0
  2 11  1  0
  3  4  1  6
  3  5  1  0
  5  6  1  1
  5  7  1  0
  7  8  1  6
  7  9  1  0
  9 10  1  1
  9 11  1  0
 11 12  1  1
M  END
$$$$
../data/sim100/22.pdb
     RDKit          3D

  6  5  0  0  0  0  0  0  0  0999 V2000
    2.2370    0.7340    0.0960 C   0  0  0  0  0  0  0  0  0  0  0  0
    0.7770    0.7590   -0.3010 C   0  0  0  0  0  0  0  0  0  0  0  0
    0.1680   -0.5420    0.0690 C   0  0  0  0  0  0  0  0  0  0  0  0
    0.8530   -1.5500   -0.6210 O   0  0  0  0  0  0  0  0  0  0  0  0
   -1.2860   -0.6820   -0.2640 C   0  0  0  0  0  0  0  0  0  0  0  0
   -2.1590    0.3360    0.4090 C   0  0  0  0  0  0  0  0  0  0  0  0
  1  2  1  0
  2  3  1  0
  3  4  1  0
  3  5  1  0
  5  6  1  0
M  END
$$$$
../data/sim100/24.pdb
     RDKit          3D

  6  5  0  0  0  0  0  0  0  0999 V2000
   -1.8460   -0.1420   -0.7550 N   0  0  0  0  0  0  0  0  0  0  0  0
   -1.2180   -0.7610    0.3690 C   0  0  0  0  0  0  0  0  0  0  0  0
    0.0430   -0.0150    0.8150 C   0  0  0  0  0  0  0  0  0  0  0  0
   -0.2650    1.2910    1.1780 O   0  0  0  0  0  0  0  0  0  0  0  0
    1.0200   -0.0970   -0.3100 C   0  0  0  0  0  0  0  0  0  0  0  0
    2.2860    0.5170   -0.0410 N   0  0  0  0  0  0  0  0  0  0  0  0
  1  2  1  0
  2  3  1  0
  3  4  1  0
  3  5  1  0
  5  6  1  0
M  CHG  2   1   1   6   1
M  END
$$$$
../data/sim100/26.pdb
     RDKit          3D

  6  5  0  0  0  0  0  0  0  0999 V2000
   -0.0040    1.3510    0.6590 N   0  0  0  0  0  0  0  0  0  0  0  0
   -0.0210    0.3120   -0.3700 C   0  0  0  0  0  0  0  0  0  0  0  0
    1.1310   -0.6450   -0.1150 C   0  0  0  0  0  0  0  0  0  0  0  0
    2.2980    0.0860   -0.1750 O   0  0  0  0  0  0  0  0  0  0  0  0
   -1.3560   -0.3850   -0.2530 C   0  0  0  0  0  0  0  0  0  0  0  0
   -1.4400   -0.9250    1.0290 O   0  0  0  0  0  0  0  0  0  0  0  0
  1  2  1  0
  2  3  1  0
  2  5  1  0
  3  4  1  0
  5  6  1  0
M  CHG  1   1   1
M  END
$$$$
../data/sim100/27.pdb
     RDKit          3D

 10 10  0  0  1  0  0  0  0  0999 V2000
    2.3070    0.4190   -0.1030 N   0  0  0  0  0  0  0  0  0  0  0  0
    0.9550    0.4170    0.4330 C   0  0  2  0  0  0  0  0  0  0  0  0
    0.4160   -0.9960    0.5240 C   0  0  1  0  0  0  0  0  0  0  0  0
   -0.1730   -1.2340    1.7850 O   0  0  0  0  0  0  0  0  0  0  0  0
   -0.6510   -1.0580   -0.5410 C   0  0  1  0  0  0  0  0  0  0  0  0
   -1.5830   -2.0330   -0.3300 O   0  0  0  0  0  0  0  0  0  0  0  0
   -1.2180    0.3510   -0.4600 C   0  0  1  0  0  0  0  0  0  0  0  0
   -1.7240    0.6220    0.8180 O   0  0  0  0  0  0  0  0  0  0  0  0
    0.0870    1.1570   -0.5480 C   0  0  1  0  0  0  0  0  0  0  0  0
   -0.1370    2.4620   -0.1690 O   0  0  0  0  0  0  0  0  0  0  0  0
  2  1  1  6
  2  3  1  0
  2  9  1  0
  3  4  1  1
  3  5  1  0
  5  6  1  1
  5  7  1  0
  7  8  1  1
  7  9  1  0
  9 10  1  1
M  CHG  1   1   1
M  END
$$$$
../data/sim100/28.pdb
     RDKit          3D

 12 12  0  0  1  0  0  0  0  0999 V2000
    2.0450    1.5050   -0.1120 N   0  0  0  0  0  0  0  0  0  0  0  0
    0.9110    0.6980    0.2200 C   0  0  2  0  0  0  0  0  0  0  0  0
    1.0480   -0.7050   -0.3210 C   0  0  1  0  0  0  0  0  0  0  0  0
    2.2330   -1.2980    0.0630 O   0  0  0  0  0  0  0  0  0  0  0  0
   -0.1100   -1.5590    0.1020 C   0  0  1  0  0  0  0  0  0  0  0  0
   -0.0280   -1.9900    1.4200 O   0  0  0  0  0  0  0  0  0  0  0  0
   -1.4410   -0.9130   -0.1470 C   0  0  2  0  0  0  0  0  0  0  0  0
   -1.5930   -0.8150   -1.5440 O   0  0  0  0  0  0  0  0  0  0  0  0
   -1.4990    0.5110    0.3750 C   0  0  1  0  0  0  0  0  0  0  0  0
   -1.1610    0.5830    1.7280 O   0  0  0  0  0  0  0  0  0  0  0  0
   -0.3880    1.2580   -0.3720 C   0  0  1  0  0  0  0  0  0  0  0  0
   -0.4820    2.6200   -0.2230 O   0  0  0  0  0  0  0  0  0  0  0  0
  2  1  1  6
  2  3  1  0
  2 11  1  0
  3  4  1  1
  3  5  1  0
  5  6  1  1
  5  7  1  0
  7  8  1  6
  7  9  1  0
  9 10  1  1
  9 11  1  0
 11 12  1  1
M  CHG  1   1   1
M  END
$$$$
../data/sim100/29.pdb
     RDKit          3D

 14 14  0  0  1  0  0  0  0  0999 V2000
    3.5970    0.0740    1.0380 C   0  0  0  0  0  0  0  0  0  0  0  0
    2.2680   -0.2940    1.1330 O   0  0  0  0  0  0  0  0  0  0  0  0
    1.4570    0.2210    0.1690 C   0  0  1  0  0  0  0  0  0  0  0  0
    0.9520   -0.9080   -0.7020 C   0  0  1  0  0  0  0  0  0  0  0  0
    1.7660   -2.0300   -0.5460 O   0  0  0  0  0  0  0  0  0  0  0  0
   -0.4520   -1.3190   -0.3720 C   0  0  2  0  0  0  0  0  0  0  0  0
   -0.8450   -2.2710   -1.3080 O   0  0  0  0  0  0  0  0  0  0  0  0
   -1.4300   -0.1700   -0.4290 C   0  0  1  0  0  0  0  0  0  0  0  0
   -2.2310   -0.2320    0.7050 O   0  0  0  0  0  0  0  0  0  0  0  0
   -3.5620   -0.3020    0.3070 C   0  0  0  0  0  0  0  0  0  0  0  0
   -0.7220    1.1670   -0.4210 C   0  0  1  0  0  0  0  0  0  0  0  0
   -1.6520    2.1300   -0.0330 O   0  0  0  0  0  0  0  0  0  0  0  0
    0.3610    1.1080    0.6590 C   0  0  2  0  0  0  0  0  0  0  0  0
    0.8710    2.3920    0.8020 O   0  0  0  0  0  0  0  0  0  0  0  0
  1  2  1  0
  3  2  1  1
  3  4  1  0
  3 13  1  0
  4  5  1  1
  4  6  1  0
  6  7  1  6
  6  8  1  0
  8  9  1  1
  8 11  1  0
  9 10  1  0
 11 12  1  1
 11 13  1  0
 13 14  1  6
M  END
$$$$
../data/sim100/30.pdb
     RDKit          3D

 13 13  0  0  1  0  0  0  0  0999 V2000
    3.2640    0.0550   -0.3760 O   0  0  0  0  0  0  0  0  0  0  0  0
    2.2410    0.9310   -0.0800 C   0  0  0  0  0  0  0  0  0  0  0  0
    0.9630    0.1860    0.3300 C   0  0  1  0  0  0  0  0  0  0  0  0
   -0.0720    1.2140    0.6260 C   0  0  2  0  0  0  0  0  0  0  0  0
    0.1030    1.6150    1.9690 O   0  0  0  0  0  0  0  0  0  0  0  0
   -1.4640    0.8210    0.3140 C   0  0  2  0  0  0  0  0  0  0  0  0
   -2.2810    1.2570    1.3840 O   0  0  0  0  0  0  0  0  0  0  0  0
   -1.7180   -0.6190    0.1120 C   0  0  1  0  0  0  0  0  0  0  0  0
   -2.9680   -0.7300   -0.5460 O   0  0  0  0  0  0  0  0  0  0  0  0
   -0.7290   -1.3510   -0.7130 C   0  0  2  0  0  0  0  0  0  0  0  0
   -0.6100   -2.6560   -0.1790 O   0  0  0  0  0  0  0  0  0  0  0  0
    0.6180   -0.7280   -0.8100 C   0  0  2  0  0  0  0  0  0  0  0  0
    1.5690   -1.7570   -0.8430 O   0  0  0  0  0  0  0  0  0  0  0  0
  1  2  1  0
  3  2  1  6
  3  4  1  0
  3 12  1  0
  4  5  1  1
  4  6  1  0
  6  7  1  1
  6  8  1  0
  8  9  1  6
  8 10  1  0
 10 11  1  1
 10 12  1  0
 12 13  1  1
M  END
$$$$
../data/sim100/31.pdb
     RDKit          3D

  2  1  0  0  0  0  0  0  0  0999 V2000
    0.5790    0.0000    0.0000 O   0  0  0  0  0  0  0  0  0  0  0  0
   -0.5790    0.0000    0.0000 O   0  0  0  0  0  0  0  0  0  0  0  0
  1  2  2  0
M  END
$$$$
../data/sim100/32.pdb
     RDKit          3D

  9  9  0  0  1  0  0  0  0  0999 V2000
    1.8780    0.9910    0.1140 C   0  0  0  0  0  0  0  0  0  0  0  0
    0.4620    0.5430    0.3250 C   0  0  1  0  0  0  0  0  0  0  0  0
   -0.4480    1.4260   -0.3050 O   0  0  0  0  0  0  0  0  0  0  0  0
   -1.7900    1.0990   -0.2660 C   0  0  0  0  0  0  0  0  0  0  0  0
   -2.6940    2.0000   -0.2950 O   0  0  0  0  0  0  0  0  0  0  0  0
   -2.1390   -0.2990   -0.1910 C   0  0  0  0  0  0  0  0  0  0  0  0
   -1.2120   -1.2270   -0.1610 C   0  0  0  0  0  0  0  0  0  0  0  0
    0.2220   -0.8570   -0.2040 C   0  0  2  0  0  0  0  0  0  0  0  0
    0.9080   -1.7980    0.5800 O   0  0  0  0  0  0  0  0  0  0  0  0
  2  1  1  6
  2  3  1  0
  2  8  1  0
  3  4  1  0
  4  5  2  0
  4  6  1  0
  6  7  2  0
  7  8  1  0
  8  9  1  1
M  END
$$$$
../data/sim100/34.pdb
     RDKit          3D

  3  2  0  0  0  0  0  0  0  0999 V2000
    1.1420   -0.0450   -0.1280 C   0  0  0  0  0  0  0  0  0  0  0  0
   -0.0380   -0.5310   -0.6250 O   0  0  0  0  0  0  0  0  0  0  0  0
   -1.1580   -0.0270    0.0360 C   0  0  0  0  0  0  0  0  0  0  0  0
  1  2  1  0
  2  3  1  0
M  END
$$$$
../data/sim100/35.pdb
     RDKit          3D

  4  3  0  0  0  0  0  0  0  0999 V2000
    1.9550   -0.4500   -0.4970 I   0  0  0  0  0  0  0  0  0  0  0  0
    0.0070   -0.0130    0.2280 C   0  0  0  0  0  0  0  0  0  0  0  0
   -0.5480    1.9150   -0.5260 I   0  0  0  0  0  0  0  0  0  0  0  0
   -1.3680   -1.4530   -0.5430 I   0  0  0  0  0  0  0  0  0  0  0  0
  1  2  1  0
  2  3  1  0
  2  4  1  0
M  END
$$$$
../data/sim100/36.pdb
     RDKit          3D

  4  3  0  0  0  0  0  0  0  0999 V2000
    0.0710    1.4680   -0.8940 C   0  0  0  0  0  0  0  0  0  0  0  0
   -0.0860   -0.3620   -0.5310 P   0  0  0  0  0  0  0  0  0  0  0  0
    1.4720   -0.9090    0.2710 C   0  0  0  0  0  0  0  0  0  0  0  0
   -1.5700   -0.5860    0.5370 C   0  0  0  0  0  0  0  0  0  0  0  0
  1  2  1  0
  2  3  1  0
  2  4  1  0
M  END
$$$$
../data/sim100/37.pdb
     RDKit          3D

  3  2  0  0  0  0  0  0  0  0999 V2000
   -1.2000    0.1870   -0.0690 C   0  0  0  0  0  0  0  0  0  0  0  0
    0.0100   -0.3430   -0.6080 N   0  0  0  0  0  0  0  0  0  0  0  0
    1.1990    0.0710    0.1320 C   0  0  0  0  0  0  0  0  0  0  0  0
  1  2  1  0
  2  3  1  0
M  CHG  1   2   1
M  END
$$$$
../data/sim100/38.pdb
     RDKit          3D

  4  3  0  0  0  0  0  0  0  0999 V2000
   -0.7740    1.4560   -0.4930 Cl  0  0  0  0  0  0  0  0  0  0  0  0
   -0.0010   -0.0120    0.1590 C   0  0  0  0  0  0  0  0  0  0  0  0
   -0.8620   -1.4150   -0.4820 Cl  0  0  0  0  0  0  0  0  0  0  0  0
    1.6810   -0.0450   -0.4430 Cl  0  0  0  0  0  0  0  0  0  0  0  0
  1  2  1  0
  2  3  1  0
  2  4  1  0
M  END
$$$$
../data/sim100/39.pdb
     RDKit          3D

  3  2  0  0  0  0  0  0  0  0999 V2000
   -1.3180    0.0140   -0.0050 C   0  0  0  0  0  0  0  0  0  0  0  0
    0.0030   -0.0230   -0.0120 C   0  0  0  0  0  0  0  0  0  0  0  0
    1.3050   -0.0160    0.0130 C   0  0  0  0  0  0  0  0  0  0  0  0
  1  2  2  0
  2  3  2  0
M  END
$$$$
../data/sim100/40.pdb
     RDKit          3D

  4  3  0  0  0  0  0  0  0  0999 V2000
    1.2610   -0.7460   -0.0160 C   0  0  0  0  0  0  0  0  0  0  0  0
   -0.0220   -0.0470   -0.3740 C   0  0  0  0  0  0  0  0  0  0  0  0
   -1.2410   -0.6860    0.1970 C   0  0  0  0  0  0  0  0  0  0  0  0
    0.0300    1.4090    0.0530 C   0  0  0  0  0  0  0  0  0  0  0  0
  1  2  1  0
  2  3  1  0
  2  4  1  0
M  END
$$$$
../data/sim100/41.pdb
     RDKit          3D

  3  2  0  0  0  0  0  0  0  0999 V2000
   -1.4570   -0.0390   -0.0260 C   0  0  0  0  0  0  0  0  0  0  0  0
   -0.0310    0.1330    1.1010 S   0  0  0  0  0  0  0  0  0  0  0  0
    1.4910    0.0590    0.0810 C   0  0  0  0  0  0  0  0  0  0  0  0
  1  2  1  0
  2  3  1  0
M  END
$$$$
../data/sim100/42.pdb
     RDKit          3D

  4  3  0  0  0  0  0  0  0  0999 V2000
   -0.4310    1.7320   -0.3040 S   0  0  0  0  0  0  0  0  0  0  0  0
   -0.0180    0.4690    0.2140 C   0  0  0  0  0  0  0  0  0  0  0  0
   -1.2960   -0.6990    0.5980 S   0  0  0  0  0  0  0  0  0  0  0  0
    1.6990    0.1300    0.4460 S   0  0  0  0  0  0  0  0  0  0  0  0
  1  2  2  0
  2  3  1  0
  2  4  1  0
M  END
$$$$
../data/sim100/44.pdb
     RDKit          3D

  4  3  0  0  0  0  0  0  0  0999 V2000
   -1.0610   -0.7270    0.0530 C   0  0  0  0  0  0  0  0  0  0  0  0
    0.0020    0.2830   -0.2750 C   0  0  0  0  0  0  0  0  0  0  0  0
    1.3220   -0.2450    0.2330 C   0  0  0  0  0  0  0  0  0  0  0  0
   -0.3740    1.9300    0.3660 S   0  0  0  0  0  0  0  0  0  0  0  0
  1  2  1  0
  2  3  1  0
  2  4  1  0
M  END
$$$$
../data/sim100/46.pdb
     RDKit          3D

  4  3  0  0  0  0  0  0  0  0999 V2000
    1.3490   -0.2770    0.1900 C   0  0  0  0  0  0  0  0  0  0  0  0
    0.0440    0.0900   -0.4830 C   0  0  0  0  0  0  0  0  0  0  0  0
   -1.0290   -0.7250    0.2230 C   0  0  0  0  0  0  0  0  0  0  0  0
   -0.2030    1.5110   -0.3870 N   0  0  0  0  0  0  0  0  0  0  0  0
  1  2  1  0
  2  3  1  0
  2  4  1  0
M  CHG  1   4   1
M  END
$$$$
../data/sim100/47.pdb
     RDKit          3D

  3  2  0  0  0  0  0  0  0  0999 V2000
   -0.9040    0.1680   -0.4180 C   0  0  0  0  0  0  0  0  0  0  0  0
    0.1120   -0.5980   -0.4140 N   0  0  0  0  0  0  0  0  0  0  0  0
    1.3550   -0.0240   -0.4310 O   0  0  0  0  0  0  0  0  0  0  0  0
  1  2  2  0
  2  3  1  0
M  END
$$$$
../data/sim100/48.pdb
     RDKit          3D

  3  2  0  0  0  0  0  0  0  0999 V2000
   -1.2050    0.0230   -0.5700 C   0  0  0  0  0  0  0  0  0  0  0  0
   -0.3740   -0.1150    0.4420 C   0  0  0  0  0  0  0  0  0  0  0  0
    1.0700    0.0600    0.2470 C   0  0  0  0  0  0  0  0  0  0  0  0
  1  2  2  0
  2  3  1  0
M  END
$$$$
../data/sim100/49.pdb
     RDKit          3D

  4  3  0  0  0  0  0  0  0  0999 V2000
   -1.4450   -0.7980   -0.6040 Cl  0  0  0  0  0  0  0  0  0  0  0  0
   -0.0310   -0.0350    0.1590 C   0  0  0  0  0  0  0  0  0  0  0  0
   -0.0120    1.8260   -0.3690 Br  0  0  0  0  0  0  0  0  0  0  0  0
    1.6190   -0.8460   -0.4500 Br  0  0  0  0  0  0  0  0  0  0  0  0
  1  2  1  0
  2  3  1  0
  2  4  1  0
M  END
$$$$
../data/sim100/50.pdb
     RDKit          3D

  4  3  0  0  0  0  0  0  0  0999 V2000
   -1.1350   -1.2260   -0.4940 Cl  0  0  0  0  0  0  0  0  0  0  0  0
   -0.0380    0.0000    0.1420 C   0  0  0  0  0  0  0  0  0  0  0  0
   -0.4870    1.5760   -0.5110 Cl  0  0  0  0  0  0  0  0  0  0  0  0
    1.7710   -0.3910   -0.3760 Br  0  0  0  0  0  0  0  0  0  0  0  0
  1  2  1  0
  2  3  1  0
  2  4  1  0
M  END
$$$$
../data/sim100/51.pdb
     RDKit          3D

  3  2  0  0  0  0  0  0  0  0999 V2000
   -0.8790   -0.1320    0.0960 C   0  0  0  0  0  0  0  0  0  0  0  0
    0.2300    0.5170   -0.1480 C   0  0  0  0  0  0  0  0  0  0  0  0
    1.4590   -0.0120    0.1480 O   0  0  0  0  0  0  0  0  0  0  0  0
  1  2  2  0
  2  3  1  0
M  END
$$$$
../data/sim100/52.pdb
     RDKit          3D

  8  8  0  0  0  0  0  0  0  0999 V2000
   -0.2550   -2.6670    0.0950 O   0  0  0  0  0  0  0  0  0  0  0  0
   -0.1380   -1.4160    0.0500 C   0  0  0  0  0  0  0  0  0  0  0  0
    1.1840   -0.8000    0.0380 C   0  0  0  0  0  0  0  0  0  0  0  0
    1.2960    0.5280   -0.0090 C   0  0  0  0  0  0  0  0  0  0  0  0
    0.1340    1.4080   -0.0500 C   0  0  0  0  0  0  0  0  0  0  0  0
    0.2650    2.6710   -0.0950 O   0  0  0  0  0  0  0  0  0  0  0  0
   -1.1820    0.7790   -0.0380 C   0  0  0  0  0  0  0  0  0  0  0  0
   -1.2980   -0.5340    0.0090 C   0  0  0  0  0  0  0  0  0  0  0  0
  1  2  2  0
  2  3  1  0
  2  8  1  0
  3  4  2  0
  4  5  1  0
  5  6  2  0
  5  7  1  0
  7  8  2  0
M  END
$$$$
../data/sim100/53.pdb
     RDKit          3D

  8  8  0  0  0  0  0  0  0  0999 V2000
    2.7880   -0.0040   -0.2460 O   0  0  0  0  0  0  0  0  0  0  0  0
    1.4030   -0.0060   -0.1860 C   0  0  0  0  0  0  0  0  0  0  0  0
    0.6980    1.1760   -0.0780 C   0  0  0  0  0  0  0  0  0  0  0  0
   -0.6800    1.1840   -0.0180 C   0  0  0  0  0  0  0  0  0  0  0  0
   -1.4170    0.0190   -0.0620 C   0  0  0  0  0  0  0  0  0  0  0  0
   -2.8080    0.0220   -0.0010 O   0  0  0  0  0  0  0  0  0  0  0  0
   -0.7020   -1.1640   -0.1700 C   0  0  0  0  0  0  0  0  0  0  0  0
    0.6730   -1.1750   -0.2300 C   0  0  0  0  0  0  0  0  0  0  0  0
  1  2  1  0
  2  3  2  0
  2  8  1  0
  3  4  1  0
  4  5  2  0
  5  6  1  0
  5  7  1  0
  7  8  2  0
M  END
$$$$
../data/sim100/55.pdb
     RDKit          3D

  6  5  0  0  1  0  0  0  0  0999 V2000
    1.7380   -0.6300   -0.5150 C   0  0  0  0  0  0  0  0  0  0  0  0
    0.4810   -0.4580    0.3390 C   0  0  0  0  0  0  0  0  0  0  0  0
    0.6830    0.8110    1.1350 C   0  0  0  0  0  0  0  0  0  0  0  0
   -0.6760   -0.3230   -0.6230 C   0  0  1  0  0  0  0  0  0  0  0  0
   -1.9970   -0.1460    0.0600 C   0  0  0  0  0  0  0  0  0  0  0  0
   -0.4140    0.7560   -1.4550 O   0  0  0  0  0  0  0  0  0  0  0  0
  1  2  1  0
  2  3  1  0
  2  4  1  0
  4  5  1  1
  4  6  1  0
M  END
$$$$
../data/sim100/56.pdb
     RDKit          3D

  6  5  0  0  1  0  0  0  0  0999 V2000
   -1.4390    0.2020   -0.5670 O   0  0  0  0  0  0  0  0  0  0  0  0
   -0.4590    0.1080    0.4220 C   0  0  2  0  0  0  0  0  0  0  0  0
   -0.3500    1.7100    1.1870 Cl  0  0  0  0  0  0  0  0  0  0  0  0
    0.8280   -0.2700   -0.2670 C   0  0  0  0  0  0  0  0  0  0  0  0
    2.1480   -0.4160    0.9170 Cl  0  0  0  0  0  0  0  0  0  0  0  0
    1.2490    1.0810   -1.3520 Cl  0  0  0  0  0  0  0  0  0  0  0  0
  2  1  1  6
  2  3  1  0
  2  4  1  0
  4  5  1  0
  4  6  1  0
M  END
$$$$
../data/sim100/57.pdb
     RDKit          3D

  9  9  0  0  0  0  0  0  0  0999 V2000
   -2.3110   -1.5190    0.0400 O   0  0  0  0  0  0  0  0  0  0  0  0
   -1.1490   -0.7610   -0.0700 C   0  0  0  0  0  0  0  0  0  0  0  0
   -1.2160    0.6110   -0.2630 C   0  0  0  0  0  0  0  0  0  0  0  0
   -0.0620    1.3620   -0.3710 C   0  0  0  0  0  0  0  0  0  0  0  0
   -0.0790    2.7400   -0.5650 O   0  0  0  0  0  0  0  0  0  0  0  0
    1.1470    0.7050   -0.2810 C   0  0  0  0  0  0  0  0  0  0  0  0
    1.1920   -0.6610   -0.0890 C   0  0  0  0  0  0  0  0  0  0  0  0
    2.4350   -1.2830   -0.0040 O   0  0  0  0  0  0  0  0  0  0  0  0
    0.0530   -1.4330    0.0220 C   0  0  0  0  0  0  0  0  0  0  0  0
  1  2  1  0
  2  3  2  0
  2  9  1  0
  3  4  1  0
  4  5  1  0
  4  6  2  0
  6  7  1  0
  7  8  1  0
  7  9  2  0
M  END
$$$$
../data/sim100/58.pdb
     RDKit          3D

 10 10  0  0  0  0  0  0  0  0999 V2000
   -2.1340    1.7980    0.4980 N   0  0  0  0  0  0  0  0  0  0  0  0
   -1.0510    0.9120    0.2480 C   0  0  0  0  0  0  0  0  0  0  0  0
    0.2560    1.3430    0.1500 C   0  0  0  0  0  0  0  0  0  0  0  0
    1.2930    0.4500   -0.0960 C   0  0  0  0  0  0  0  0  0  0  0  0
    2.6240    0.9100   -0.1920 N   0  0  0  0  0  0  0  0  0  0  0  0
    1.0620   -0.9020   -0.2520 C   0  0  0  0  0  0  0  0  0  0  0  0
    2.1370   -1.8110   -0.5050 N   0  0  0  0  0  0  0  0  0  0  0  0
   -0.2450   -1.3330   -0.1550 C   0  0  0  0  0  0  0  0  0  0  0  0
   -1.2750   -0.4410    0.0900 C   0  0  0  0  0  0  0  0  0  0  0  0
   -2.6260   -0.8860    0.1910 N   0  0  0  0  0  0  0  0  0  0  0  0
  1  2  1  0
  2  3  2  0
  2  9  1  0
  3  4  1  0
  4  5  1  0
  4  6  2  0
  6  7  1  0
  6  8  1  0
  8  9  2  0
  9 10  1  0
M  END
$$$$
../data/sim100/59.pdb
     RDKit          3D

  8  8  0  0  0  0  0  0  0  0999 V2000
   -2.7910    0.0140   -0.1920 N   0  0  0  0  0  0  0  0  0  0  0  0
   -1.3720    0.0120   -0.0990 C   0  0  0  0  0  0  0  0  0  0  0  0
   -0.6340    1.0580   -0.6200 C   0  0  0  0  0  0  0  0  0  0  0  0
    0.7410    1.0510   -0.5280 C   0  0  0  0  0  0  0  0  0  0  0  0
    1.3810   -0.0020    0.0850 C   0  0  0  0  0  0  0  0  0  0  0  0
    2.7900   -0.0290    0.1900 N   0  0  0  0  0  0  0  0  0  0  0  0
    0.6390   -1.0400    0.6010 C   0  0  0  0  0  0  0  0  0  0  0  0
   -0.7540   -1.0470    0.5150 C   0  0  0  0  0  0  0  0  0  0  0  0
  1  2  1  0
  2  3  2  0
  2  8  1  0
  3  4  1  0
  4  5  2  0
  5  6  1  0
  5  7  1  0
  7  8  2  0
M  END
$$$$
../data/sim100/60.pdb
     RDKit          3D

  9  9  0  0  0  0  0  0  0  0999 V2000
    2.7470   -0.6090    0.1160 N   0  0  0  0  0  0  0  0  0  0  0  0
    1.3690   -0.2900    0.0600 C   0  0  0  0  0  0  0  0  0  0  0  0
    0.4420   -1.3090   -0.0200 C   0  0  0  0  0  0  0  0  0  0  0  0
   -0.9080   -1.0230   -0.0760 C   0  0  0  0  0  0  0  0  0  0  0  0
   -1.8710   -2.0680   -0.1580 N   0  0  0  0  0  0  0  0  0  0  0  0
   -1.3300    0.2950   -0.0520 C   0  0  0  0  0  0  0  0  0  0  0  0
   -0.4110    1.3210    0.0270 C   0  0  0  0  0  0  0  0  0  0  0  0
   -0.8880    2.6580    0.0480 N   0  0  0  0  0  0  0  0  0  0  0  0
    0.9380    1.0350    0.0830 C   0  0  0  0  0  0  0  0  0  0  0  0
  1  2  1  0
  2  3  2  0
  2  9  1  0
  3  4  1  0
  4  5  1  0
  4  6  2  0
  6  7  1  0
  7  8  1  0
  7  9  2  0
M  END
$$$$
../data/sim100/61.pdb
     RDKit          3D

 10 10  0  0  1  0  0  0  0  0999 V2000
   -0.7140    1.7720   -1.0780 O   0  0  0  0  0  0  0  0  0  0  0  0
   -0.7040    1.2830    0.2140 C   0  0  2  0  0  0  0  0  0  0  0  0
    0.6600    1.1870    0.8140 C   0  0  0  0  0  0  0  0  0  0  0  0
    1.4760    0.0420    0.3260 C   0  0  2  0  0  0  0  0  0  0  0  0
    2.2210    0.3690   -0.8180 O   0  0  0  0  0  0  0  0  0  0  0  0
    0.7160   -1.2200    0.0940 C   0  0  1  0  0  0  0  0  0  0  0  0
    0.5290   -1.9360    1.2690 O   0  0  0  0  0  0  0  0  0  0  0  0
   -0.6160   -1.0190   -0.5730 C   0  0  0  0  0  0  0  0  0  0  0  0
   -1.4410   -0.0350    0.2140 C   0  0  2  0  0  0  0  0  0  0  0  0
   -2.6400    0.1520   -0.4890 O   0  0  0  0  0  0  0  0  0  0  0  0
  2  1  1  6
  2  3  1  0
  2  9  1  0
  3  4  1  0
  4  5  1  6
  4  6  1  0
  6  7  1  1
  6  8  1  0
  8  9  1  0
  9 10  1  6
M  END
$$$$
../data/sim100/62.pdb
     RDKit          3D

  6  5  0  0  0  0  0  0  0  0999 V2000
    0.3090   -0.6930   -1.8160 O   0  0  0  0  0  0  0  0  0  0  0  0
   -0.2610   -0.0820   -0.5670 P   0  0  0  0  0  0  0  0  0  0  0  0
    0.2420    1.5240   -0.4900 O   0  0  0  0  0  0  0  0  0  0  0  0
   -1.9340   -0.1390   -0.5070 O   0  0  0  0  0  0  0  0  0  0  0  0
    0.4490   -0.8860    0.7580 O   0  0  0  0  0  0  0  0  0  0  0  0
    1.7600   -0.8370    0.5380 O   0  0  0  0  0  0  0  0  0  0  0  0
  1  2  2  0
  2  3  1  0
  2  4  1  0
  2  5  1  0
  5  6  1  0
M  END
$$$$
../data/sim100/63.pdb
     RDKit          3D

 10  9  0  0  1  0  0  0  0  0999 V2000
   -2.9640    1.0360   -0.8240 O   0  0  0  0  0  0  0  0  0  0  0  0
   -1.6690    0.9620   -0.2340 C   0  0  0  0  0  0  0  0  0  0  0  0
   -1.1400   -0.4180   -0.5310 C   0  0  2  0  0  0  0  0  0  0  0  0
   -2.1260   -1.2690    0.0690 O   0  0  0  0  0  0  0  0  0  0  0  0
    0.1240   -0.7770    0.1960 C   0  0  0  0  0  0  0  0  0  0  0  0
    0.3090   -2.1890   -0.0130 O   0  0  0  0  0  0  0  0  0  0  0  0
    1.3830   -0.1720   -0.3220 C   0  0  1  0  0  0  0  0  0  0  0  0
    1.5860   -0.4190   -1.6720 O   0  0  0  0  0  0  0  0  0  0  0  0
    1.7040    1.2120    0.1010 C   0  0  0  0  0  0  0  0  0  0  0  0
    3.0850    1.4760   -0.1290 O   0  0  0  0  0  0  0  0  0  0  0  0
  1  2  1  0
  2  3  1  0
  3  4  1  1
  3  5  1  0
  5  6  1  0
  5  7  1  0
  7  8  1  6
  7  9  1  0
  9 10  1  0
M  END
$$$$
../data/sim100/64.pdb
     RDKit          3D

 23 24  0  0  1  0  0  0  0  0999 V2000
   -5.3020    0.4730    0.4050 O   0  0  0  0  0  0  0  0  0  0  0  0
   -3.9400    0.5830    0.2330 C   0  0  1  0  0  0  0  0  0  0  0  0
   -3.2570    0.1690    1.4990 C   0  0  1  0  0  0  0  0  0  0  0  0
   -3.9840   -0.9210    2.0340 O   0  0  0  0  0  0  0  0  0  0  0  0
   -1.8250   -0.1540    1.3760 C   0  0  2  0  0  0  0  0  0  0  0  0
   -1.1300    0.5110    2.4160 O   0  0  0  0  0  0  0  0  0  0  0  0
   -1.1580    0.1520    0.0850 C   0  0  1  0  0  0  0  0  0  0  0  0
   -0.0660   -0.7080   -0.1230 O   0  0  0  0  0  0  0  0  0  0  0  0
    1.1400   -0.0430   -0.1690 C   0  0  1  0  0  0  0  0  0  0  0  0
    2.0880   -0.4620    0.9280 C   0  0  1  0  0  0  0  0  0  0  0  0
    2.5630   -1.7470    0.7770 O   0  0  0  0  0  0  0  0  0  0  0  0
    3.1980    0.5700    0.9830 C   0  0  1  0  0  0  0  0  0  0  0  0
    4.2170    0.1650    1.8610 O   0  0  0  0  0  0  0  0  0  0  0  0
    3.7620    0.9020   -0.3560 C   0  0  1  0  0  0  0  0  0  0  0  0
    5.1720    0.8480   -0.3510 O   0  0  0  0  0  0  0  0  0  0  0  0
    3.2950    0.0120   -1.4610 C   0  0  1  0  0  0  0  0  0  0  0  0
    3.9320   -1.2270   -1.4680 O   0  0  0  0  0  0  0  0  0  0  0  0
    1.8200   -0.1980   -1.5050 C   0  0  1  0  0  0  0  0  0  0  0  0
    1.5460   -1.5070   -1.9620 O   0  0  0  0  0  0  0  0  0  0  0  0
   -2.0110    0.1010   -1.1270 C   0  0  1  0  0  0  0  0  0  0  0  0
   -1.5010   -0.7910   -2.1000 O   0  0  0  0  0  0  0  0  0  0  0  0
   -3.4320   -0.3380   -0.8670 C   0  0  2  0  0  0  0  0  0  0  0  0
   -4.1580   -0.0760   -2.0310 O   0  0  0  0  0  0  0  0  0  0  0  0
  2  1  1  1
  2  3  1  0
  2 22  1  0
  3  4  1  6
  3  5  1  0
  5  6  1  1
  5  7  1  0
  7  8  1  6
  7 20  1  0
  9  8  1  6
  9 10  1  0
  9 18  1  0
 10 11  1  6
 10 12  1  0
 12 13  1  1
 12 14  1  0
 14 15  1  1
 14 16  1  0
 16 17  1  1
 16 18  1  0
 18 19  1  1
 20 21  1  6
 20 22  1  0
 22 23  1  6
M  END
$$$$
../data/sim100/65.pdb
     RDKit          3D

  5  4  0  0  1  0  0  0  0  0999 V2000
    1.2400   -0.8150    0.4010 C   0  0  0  0  0  0  0  0  0  0  0  0
    0.4030    0.1290   -0.4050 C   0  0  2  0  0  0  0  0  0  0  0  0
    0.6680    1.5200   -0.1070 N   0  0  0  0  0  0  0  0  0  0  0  0
   -1.0700   -0.1890   -0.3460 C   0  0  0  0  0  0  0  0  0  0  0  0
   -1.6350    0.0470    0.8810 O   0  0  0  0  0  0  0  0  0  0  0  0
  2  1  1  1
  2  3  1  0
  2  4  1  0
  4  5  1  0
M  CHG  1   3   1
M  END
$$$$
../data/sim100/66.pdb
     RDKit          3D

  5  4  0  0  1  0  0  0  0  0999 V2000
   -0.9150   -0.8000    0.4760 C   0  0  0  0  0  0  0  0  0  0  0  0
   -0.1950    0.4410   -0.0070 C   0  0  2  0  0  0  0  0  0  0  0  0
   -0.8520    1.1120   -0.9990 O   0  0  0  0  0  0  0  0  0  0  0  0
    1.2060   -0.0130   -0.4190 C   0  0  0  0  0  0  0  0  0  0  0  0
    1.9380   -0.7110    1.0630 Cl  0  0  0  0  0  0  0  0  0  0  0  0
  2  1  1  6
  2  3  1  0
  2  4  1  0
  4  5  1  0
M  END
$$$$
../data/sim100/67.pdb
     RDKit          3D

  5  4  0  0  1  0  0  0  0  0999 V2000
   -1.4480   -0.7980   -0.0520 C   0  0  0  0  0  0  0  0  0  0  0  0
   -0.3390    0.0700    0.4750 C   0  0  2  0  0  0  0  0  0  0  0  0
   -0.7630    1.4060    0.4100 O   0  0  0  0  0  0  0  0  0  0  0  0
    0.8560   -0.0570   -0.4460 C   0  0  0  0  0  0  0  0  0  0  0  0
    1.9400    0.8220   -0.0410 N   0  0  0  0  0  0  0  0  0  0  0  0
  2  1  1  6
  2  3  1  0
  2  4  1  0
  4  5  1  0
M  CHG  1   5   1
M  END
$$$$
../data/sim100/68.pdb
     RDKit          3D

 12 11  0  0  1  0  0  0  0  0999 V2000
   -2.9060   -1.0010   -0.5080 O   0  0  0  0  0  0  0  0  0  0  0  0
   -2.7340    0.3480   -0.4060 C   0  0  0  0  0  0  0  0  0  0  0  0
   -1.6950    0.8310    0.5420 C   0  0  1  0  0  0  0  0  0  0  0  0
   -1.8500    0.4650    1.8490 O   0  0  0  0  0  0  0  0  0  0  0  0
   -0.2610    0.6900    0.0480 C   0  0  2  0  0  0  0  0  0  0  0  0
   -0.2610    1.0720   -1.2890 O   0  0  0  0  0  0  0  0  0  0  0  0
    0.3060   -0.6550    0.2860 C   0  0  1  0  0  0  0  0  0  0  0  0
   -0.4280   -1.6720   -0.3540 O   0  0  0  0  0  0  0  0  0  0  0  0
    1.7040   -0.7560   -0.2890 C   0  0  2  0  0  0  0  0  0  0  0  0
    2.1920   -2.0810   -0.0030 O   0  0  0  0  0  0  0  0  0  0  0  0
    2.6870    0.1820    0.3470 C   0  0  0  0  0  0  0  0  0  0  0  0
    2.4240    1.5010    0.1140 O   0  0  0  0  0  0  0  0  0  0  0  0
  1  2  1  0
  2  3  1  0
  3  4  1  1
  3  5  1  0
  5  6  1  6
  5  7  1  0
  7  8  1  6
  7  9  1  0
  9 10  1  1
  9 11  1  0
 11 12  1  0
M  END
$$$$
../data/sim100/69.pdb
     RDKit          3D

  5  4  0  0  0  0  0  0  0  0999 V2000
   -1.0860   -1.0370   -0.0630 C   0  0  0  0  0  0  0  0  0  0  0  0
   -0.1240   -0.1310    0.0390 C   0  0  0  0  0  0  0  0  0  0  0  0
    1.2640   -0.5550   -0.2430 C   0  0  0  0  0  0  0  0  0  0  0  0
   -0.4460    1.2660    0.4280 C   0  0  0  0  0  0  0  0  0  0  0  0
    0.0270    2.4400   -0.8170 Cl  0  0  0  0  0  0  0  0  0  0  0  0
  1  2  2  0
  2  3  1  0
  2  4  1  0
  4  5  1  0
M  END
$$$$
../data/sim100/70.pdb
     RDKit          3D

 10 10  0  0  0  0  0  0  0  0999 V2000
   -3.5430    0.3500    0.3500 O   0  0  0  0  0  0  0  0  0  0  0  0
   -2.4200    1.1270    0.4120 N   0  0  0  0  0  0  0  0  0  0  0  0
   -1.2520    0.5770    0.1890 C   0  0  0  0  0  0  0  0  0  0  0  0
   -1.1630   -0.8500   -0.1220 C   0  0  0  0  0  0  0  0  0  0  0  0
    0.0320   -1.3800   -0.3440 C   0  0  0  0  0  0  0  0  0  0  0  0
    1.2590   -0.5940   -0.2890 C   0  0  0  0  0  0  0  0  0  0  0  0
    2.4130   -1.1320   -0.5080 N   0  0  0  0  0  0  0  0  0  0  0  0
    3.5870   -0.4630   -0.4730 O   0  0  0  0  0  0  0  0  0  0  0  0
    1.1480    0.8240    0.0220 C   0  0  0  0  0  0  0  0  0  0  0  0
   -0.0380    1.3860    0.2500 C   0  0  0  0  0  0  0  0  0  0  0  0
  1  2  1  0
  2  3  2  0
  3  4  1  0
  3 10  1  0
  4  5  2  0
  5  6  1  0
  6  7  2  0
  6  9  1  0
  7  8  1  0
  9 10  2  0
M  END
$$$$
../data/sim100/71.pdb
     RDKit          3D

 14 14  0  0  1  0  0  0  0  0999 V2000
    3.1300    0.6180   -0.6200 C   0  0  0  0  0  0  0  0  0  0  0  0
    1.9200    0.0300   -0.9840 O   0  0  0  0  0  0  0  0  0  0  0  0
    1.0340   -0.0210    0.0920 C   0  0  2  0  0  0  0  0  0  0  0  0
    0.7740   -1.4440    0.4200 C   0  0  2  0  0  0  0  0  0  0  0  0
    1.1930   -2.2890   -0.6330 O   0  0  0  0  0  0  0  0  0  0  0  0
   -0.6480   -1.7780    0.7240 C   0  0  1  0  0  0  0  0  0  0  0  0
   -0.9760   -1.4220    2.0420 O   0  0  0  0  0  0  0  0  0  0  0  0
   -1.6260   -1.2410   -0.2750 C   0  0  1  0  0  0  0  0  0  0  0  0
   -2.9080   -1.3620    0.3060 O   0  0  0  0  0  0  0  0  0  0  0  0
   -1.3350    0.1130   -0.7760 C   0  0  2  0  0  0  0  0  0  0  0  0
   -1.2250    0.1120   -2.1850 O   0  0  0  0  0  0  0  0  0  0  0  0
   -0.1670    0.8150   -0.1880 C   0  0  1  0  0  0  0  0  0  0  0  0
   -0.5440    1.5210    0.9560 O   0  0  0  0  0  0  0  0  0  0  0  0
   -0.4130    2.8870    0.8220 C   0  0  0  0  0  0  0  0  0  0  0  0
  1  2  1  0
  3  2  1  6
  3  4  1  0
  3 12  1  0
  4  5  1  6
  4  6  1  0
  6  7  1  1
  6  8  1  0
  8  9  1  1
  8 10  1  0
 10 11  1  6
 10 12  1  0
 12 13  1  1
 13 14  1  0
M  END
$$$$
../data/sim100/72.pdb
     RDKit          3D

 13 13  0  0  1  0  0  0  0  0999 V2000
    2.9580   -0.9900   -0.2730 C   0  0  0  0  0  0  0  0  0  0  0  0
    2.1790   -0.3480    0.7170 O   0  0  0  0  0  0  0  0  0  0  0  0
    0.9100   -0.1690    0.2340 C   0  0  1  0  0  0  0  0  0  0  0  0
   -0.1610   -0.8460    1.0430 C   0  0  2  0  0  0  0  0  0  0  0  0
    0.1970   -2.0940    1.5050 O   0  0  0  0  0  0  0  0  0  0  0  0
   -1.3980   -0.8950    0.1440 C   0  0  2  0  0  0  0  0  0  0  0  0
   -0.9640   -1.4500   -1.0660 O   0  0  0  0  0  0  0  0  0  0  0  0
   -1.8250    0.5550   -0.0380 C   0  0  2  0  0  0  0  0  0  0  0  0
   -3.0170    0.6570   -0.7320 O   0  0  0  0  0  0  0  0  0  0  0  0
   -0.7470    1.3150   -0.7400 C   0  0  1  0  0  0  0  0  0  0  0  0
   -1.1090    2.6200   -0.9720 O   0  0  0  0  0  0  0  0  0  0  0  0
    0.5260    1.3010    0.1140 C   0  0  1  0  0  0  0  0  0  0  0  0
    0.2430    1.8650    1.3510 O   0  0  0  0  0  0  0  0  0  0  0  0
  1  2  1  0
  3  2  1  1
  3  4  1  0
  3 12  1  0
  4  5  1  6
  4  6  1  0
  6  7  1  6
  6  8  1  0
  8  9  1  6
  8 10  1  0
 10 11  1  1
 10 12  1  0
 12 13  1  1
M  END
$$$$
../data/sim100/73.pdb
     RDKit          3D

 12 12  0  0  1  0  0  0  0  0999 V2000
    2.5430   -0.7630    0.5460 C   0  0  0  0  0  0  0  0  0  0  0  0
    1.3530   -0.4590    0.0520 C   0  0  0  0  0  0  0  0  0  0  0  0
    0.3410   -1.5100   -0.2140 C   0  0  2  0  0  0  0  0  0  0  0  0
    0.4110   -1.8050   -1.5800 O   0  0  0  0  0  0  0  0  0  0  0  0
   -1.0240   -1.1410    0.2300 C   0  0  1  0  0  0  0  0  0  0  0  0
   -1.1630   -1.5260    1.5800 O   0  0  0  0  0  0  0  0  0  0  0  0
   -1.4380    0.2550    0.0390 C   0  0  2  0  0  0  0  0  0  0  0  0
   -2.0940    0.3720   -1.1990 O   0  0  0  0  0  0  0  0  0  0  0  0
   -0.3990    1.3010    0.2030 C   0  0  1  0  0  0  0  0  0  0  0  0
   -0.3360    1.7630    1.5280 O   0  0  0  0  0  0  0  0  0  0  0  0
    0.9660    0.9400   -0.2620 C   0  0  2  0  0  0  0  0  0  0  0  0
    1.0980    1.1980   -1.6330 O   0  0  0  0  0  0  0  0  0  0  0  0
  1  2  2  0
  2  3  1  0
  2 11  1  0
  3  4  1  6
  3  5  1  0
  5  6  1  1
  5  7  1  0
  7  8  1  6
  7  9  1  0
  9 10  1  1
  9 11  1  0
 11 12  1  6
M  END
$$$$
../data/sim100/74.pdb
     RDKit          3D

 16 16  0  0  0  0  0  0  0  0999 V2000
   -3.4870   -0.0700   -1.5540 C   0  0  0  0  0  0  0  0  0  0  0  0
   -2.8710    0.0550   -0.1610 C   0  0  0  0  0  0  0  0  0  0  0  0
   -3.4230   -1.0920    0.6580 C   0  0  0  0  0  0  0  0  0  0  0  0
   -3.3760    1.3440    0.4320 C   0  0  0  0  0  0  0  0  0  0  0  0
   -1.3880    0.0200   -0.2410 C   0  0  0  0  0  0  0  0  0  0  0  0
   -0.7140   -0.1090   -1.4360 C   0  0  0  0  0  0  0  0  0  0  0  0
    0.6640   -0.1360   -1.4560 C   0  0  0  0  0  0  0  0  0  0  0  0
    1.4100   -0.0360   -0.3010 C   0  0  0  0  0  0  0  0  0  0  0  0
    2.8610   -0.0710   -0.3900 C   0  0  0  0  0  0  0  0  0  0  0  0
    3.3450   -1.2720    0.4310 C   0  0  0  0  0  0  0  0  0  0  0  0
    3.2880   -0.2450   -1.8280 C   0  0  0  0  0  0  0  0  0  0  0  0
    3.5600    1.1390    0.1550 C   0  0  0  0  0  0  0  0  0  0  0  0
    0.7060    0.0930    0.8890 C   0  0  0  0  0  0  0  0  0  0  0  0
    1.4660    0.1890    2.0170 O   0  0  0  0  0  0  0  0  0  0  0  0
   -0.6730    0.1240    0.9580 C   0  0  0  0  0  0  0  0  0  0  0  0
   -1.3930    0.2520    2.1340 O   0  0  0  0  0  0  0  0  0  0  0  0
  1  2  1  0
  2  3  1  0
  2  4  1  0
  2  5  1  0
  5  6  2  0
  5 15  1  0
  6  7  1  0
  7  8  2  0
  8  9  1  0
  8 13  1  0
  9 10  1  0
  9 11  1  0
  9 12  1  0
 13 14  1  0
 13 15  2  0
 15 16  1  0
M  END
$$$$
../data/sim100/75.pdb
     RDKit          3D

 22 23  0  0  0  0  0  0  0  0999 V2000
   -5.7750   -0.6220    0.3720 O   0  0  0  0  0  0  0  0  0  0  0  0
   -4.9990    0.2360   -0.1500 C   0  0  0  0  0  0  0  0  0  0  0  0
   -3.5600    0.0260   -0.1090 C   0  0  0  0  0  0  0  0  0  0  0  0
   -2.7100    0.9510   -0.6730 C   0  0  0  0  0  0  0  0  0  0  0  0
   -1.3540    0.7150   -0.6120 C   0  0  0  0  0  0  0  0  0  0  0  0
   -0.8100   -0.3990   -0.0150 C   0  0  0  0  0  0  0  0  0  0  0  0
    0.6540   -0.6000    0.0200 C   0  0  0  0  0  0  0  0  0  0  0  0
    1.2250   -1.8320    0.0040 C   0  0  0  0  0  0  0  0  0  0  0  0
    2.5960   -1.9690    0.0380 C   0  0  0  0  0  0  0  0  0  0  0  0
    3.4460   -0.8850    0.0910 C   0  0  0  0  0  0  0  0  0  0  0  0
    4.8810   -1.0240    0.1280 C   0  0  0  0  0  0  0  0  0  0  0  0
    5.3790   -2.1890    0.1100 O   0  0  0  0  0  0  0  0  0  0  0  0
    5.7460    0.1710    0.1840 C   0  0  0  0  0  0  0  0  0  0  0  0
    7.0960   -0.1830    0.2120 O   0  0  0  0  0  0  0  0  0  0  0  0
    5.5820    0.9490   -0.9840 O   0  0  0  0  0  0  0  0  0  0  0  0
    2.8500    0.3650    0.1080 C   0  0  0  0  0  0  0  0  0  0  0  0
    1.4740    0.5090    0.0730 C   0  0  0  0  0  0  0  0  0  0  0  0
   -1.6780   -1.3140    0.5440 C   0  0  0  0  0  0  0  0  0  0  0  0
   -3.0610   -1.1030    0.4990 C   0  0  0  0  0  0  0  0  0  0  0  0
   -5.6230    1.4170   -0.7770 C   0  0  0  0  0  0  0  0  0  0  0  0
   -7.0020    1.3600   -0.6790 O   0  0  0  0  0  0  0  0  0  0  0  0
   -5.1170    2.5980   -0.1850 O   0  0  0  0  0  0  0  0  0  0  0  0
  1  2  2  0
  2  3  1  0
  2 20  1  0
  3  4  2  0
  3 19  1  0
  4  5  1  0
  5  6  2  0
  6  7  1  0
  6 18  1  0
  7  8  2  0
  7 17  1  0
  8  9  1  0
  9 10  2  0
 10 11  1  0
 10 16  1  0
 11 12  2  0
 11 13  1  0
 13 14  1  0
 13 15  1  0
 16 17  2  0
 18 19  2  0
 20 21  1  0
 20 22  1  0
M  END
$$$$
../data/sim100/76.pdb
     RDKit          3D

 19 20  0  0  1  0  0  0  0  0999 V2000
    4.7920    0.5570    0.6980 O   0  0  0  0  0  0  0  0  0  0  0  0
    3.7720    0.7720   -0.2290 C   0  0  1  0  0  0  0  0  0  0  0  0
    3.3120   -0.5530   -0.6930 C   0  0  0  0  0  0  0  0  0  0  0  0
    2.0710   -0.9850   -0.6580 C   0  0  0  0  0  0  0  0  0  0  0  0
    1.0200   -0.1060   -0.1170 C   0  0  2  0  0  0  0  0  0  0  0  0
   -0.2520   -0.4280   -0.5040 O   0  0  0  0  0  0  0  0  0  0  0  0
   -1.1020   -0.8130    0.5080 C   0  0  2  0  0  0  0  0  0  0  0  0
   -1.5290   -2.2360    0.2260 C   0  0  1  0  0  0  0  0  0  0  0  0
   -1.8240   -2.9200    1.4040 O   0  0  0  0  0  0  0  0  0  0  0  0
   -2.6320   -2.3250   -0.7630 C   0  0  0  0  0  0  0  0  0  0  0  0
   -3.6470   -1.4980   -0.6520 C   0  0  0  0  0  0  0  0  0  0  0  0
   -3.6020   -0.5210    0.4800 C   0  0  2  0  0  0  0  0  0  0  0  0
   -4.5320    0.4930    0.1650 O   0  0  0  0  0  0  0  0  0  0  0  0
   -2.2530    0.1540    0.5470 C   0  0  2  0  0  0  0  0  0  0  0  0
   -2.1670    1.1010   -0.4950 O   0  0  0  0  0  0  0  0  0  0  0  0
    1.4070    1.3300   -0.3420 C   0  0  2  0  0  0  0  0  0  0  0  0
    1.6970    1.6400   -1.6440 O   0  0  0  0  0  0  0  0  0  0  0  0
    2.6810    1.5530    0.4570 C   0  0  1  0  0  0  0  0  0  0  0  0
    2.4350    1.1110    1.7460 O   0  0  0  0  0  0  0  0  0  0  0  0
  2  1  1  1
  2  3  1  0
  2 18  1  0
  3  4  2  0
  4  5  1  0
  5  6  1  6
  5 16  1  0
  7  6  1  6
  7  8  1  0
  7 14  1  0
  8  9  1  1
  8 10  1  0
 10 11  2  0
 11 12  1  0
 12 13  1  6
 12 14  1  0
 14 15  1  6
 16 17  1  6
 16 18  1  0
 18 19  1  1
M  END
$$$$
../data/sim100/77.pdb
     RDKit          3D

 12 12  0  0  0  0  0  0  0  0999 V2000
   -0.4190   -3.2890   -0.0770 Br  0  0  0  0  0  0  0  0  0  0  0  0
   -0.1870   -1.4000   -0.0330 C   0  0  0  0  0  0  0  0  0  0  0  0
    1.0720   -0.8380   -0.0000 C   0  0  0  0  0  0  0  0  0  0  0  0
    2.6030   -1.9960    0.0000 Br  0  0  0  0  0  0  0  0  0  0  0  0
    1.2630    0.5260    0.0320 C   0  0  0  0  0  0  0  0  0  0  0  0
    3.0020    1.2950    0.0770 Br  0  0  0  0  0  0  0  0  0  0  0  0
    0.1850    1.3860    0.0320 C   0  0  0  0  0  0  0  0  0  0  0  0
    0.4440    3.2930    0.0770 Br  0  0  0  0  0  0  0  0  0  0  0  0
   -1.0820    0.8420    0.0000 C   0  0  0  0  0  0  0  0  0  0  0  0
   -2.6160    2.0010   -0.0010 Br  0  0  0  0  0  0  0  0  0  0  0  0
   -1.2610   -0.5270   -0.0320 C   0  0  0  0  0  0  0  0  0  0  0  0
   -3.0030   -1.2930   -0.0770 Br  0  0  0  0  0  0  0  0  0  0  0  0
  1  2  1  0
  2  3  2  0
  2 11  1  0
  3  4  1  0
  3  5  1  0
  5  6  1  0
  5  7  2  0
  7  8  1  0
  7  9  1  0
  9 10  1  0
  9 11  2  0
 11 12  1  0
M  END
$$$$
../data/sim100/78.pdb
     RDKit          3D

 12 12  0  0  1  0  0  0  0  0999 V2000
   -0.7900    1.2130    2.0070 Cl  0  0  0  0  0  0  0  0  0  0  0  0
   -1.2180    0.7450    0.3430 C   0  0  1  0  0  0  0  0  0  0  0  0
   -0.1540    1.3370   -0.5710 C   0  0  1  0  0  0  0  0  0  0  0  0
   -0.1180    3.0790   -0.4460 Cl  0  0  0  0  0  0  0  0  0  0  0  0
    1.1750    0.7280   -0.1050 C   0  0  2  0  0  0  0  0  0  0  0  0
    2.5560    1.4530   -0.9020 Cl  0  0  0  0  0  0  0  0  0  0  0  0
    1.0690   -0.7560   -0.4380 C   0  0  1  0  0  0  0  0  0  0  0  0
    2.6140   -1.5760   -0.4060 Cl  0  0  0  0  0  0  0  0  0  0  0  0
    0.0970   -1.3160    0.6110 C   0  0  2  0  0  0  0  0  0  0  0  0
    0.1660   -3.0620    0.5140 Cl  0  0  0  0  0  0  0  0  0  0  0  0
   -1.2650   -0.7510    0.2390 C   0  0  2  0  0  0  0  0  0  0  0  0
   -1.6470   -1.2070   -1.4360 Cl  0  0  0  0  0  0  0  0  0  0  0  0
  2  1  1  1
  2  3  1  0
  2 11  1  0
  3  4  1  1
  3  5  1  0
  5  6  1  6
  5  7  1  0
  7  8  1  1
  7  9  1  0
  9 10  1  6
  9 11  1  0
 11 12  1  6
M  END
$$$$
../data/sim100/79.pdb
     RDKit          3D

  6  5  0  0  0  0  0  0  0  0999 V2000
    1.5170   -1.5280    0.0070 Cl  0  0  0  0  0  0  0  0  0  0  0  0
    0.6500   -0.0070    0.0660 C   0  0  0  0  0  0  0  0  0  0  0  0
    1.5020    1.5030    0.3000 Cl  0  0  0  0  0  0  0  0  0  0  0  0
   -0.6660    0.0040   -0.0680 C   0  0  0  0  0  0  0  0  0  0  0  0
   -1.5090    1.5440   -0.0040 Cl  0  0  0  0  0  0  0  0  0  0  0  0
   -1.4940   -1.5150   -0.3000 Cl  0  0  0  0  0  0  0  0  0  0  0  0
  1  2  1  0
  2  3  1  0
  2  4  2  0
  4  5  1  0
  4  6  1  0
M  END
$$$$
../data/sim100/80.pdb
     RDKit          3D

  6  5  0  0  0  0  0  0  0  0999 V2000
   -1.3630   -1.1700   -0.1010 F   0  0  0  0  0  0  0  0  0  0  0  0
   -0.6570   -0.0170   -0.0060 C   0  0  0  0  0  0  0  0  0  0  0  0
   -1.3740    1.1320    0.0780 F   0  0  0  0  0  0  0  0  0  0  0  0
    0.6760    0.0110    0.0060 C   0  0  0  0  0  0  0  0  0  0  0  0
    1.3390    1.1920    0.1030 F   0  0  0  0  0  0  0  0  0  0  0  0
    1.3790   -1.1480   -0.0790 F   0  0  0  0  0  0  0  0  0  0  0  0
  1  2  1  0
  2  3  1  0
  2  4  2  0
  4  5  1  0
  4  6  1  0
M  END
$$$$
../data/sim100/81.pdb
     RDKit          3D

 12 12  0  0  0  0  0  0  0  0999 V2000
   -0.7860    3.0620   -0.0430 Cl  0  0  0  0  0  0  0  0  0  0  0  0
   -0.3350    1.3600   -0.0190 C   0  0  0  0  0  0  0  0  0  0  0  0
    0.9600    0.9420   -0.0100 C   0  0  0  0  0  0  0  0  0  0  0  0
    2.2480    2.1430   -0.0240 Cl  0  0  0  0  0  0  0  0  0  0  0  0
    1.3220   -0.3850    0.0080 C   0  0  0  0  0  0  0  0  0  0  0  0
    2.9850   -0.9220    0.0200 Cl  0  0  0  0  0  0  0  0  0  0  0  0
    0.3360   -1.3560    0.0190 C   0  0  0  0  0  0  0  0  0  0  0  0
    0.7820   -3.0610    0.0430 Cl  0  0  0  0  0  0  0  0  0  0  0  0
   -0.9710   -0.9420    0.0100 C   0  0  0  0  0  0  0  0  0  0  0  0
   -2.2300   -2.1550    0.0240 Cl  0  0  0  0  0  0  0  0  0  0  0  0
   -1.3230    0.3920   -0.0090 C   0  0  0  0  0  0  0  0  0  0  0  0
   -2.9870    0.9220   -0.0200 Cl  0  0  0  0  0  0  0  0  0  0  0  0
  1  2  1  0
  2  3  2  0
  2 11  1  0
  3  4  1  0
  3  5  1  0
  5  6  1  0
  5  7  2  0
  7  8  1  0
  7  9  1  0
  9 10  1  0
  9 11  2  0
 11 12  1  0
M  END
$$$$
../data/sim100/82.pdb
     RDKit          3D

 12 12  0  0  0  0  0  0  0  0999 V2000
    1.8520    2.2290   -0.0210 C   0  0  0  0  0  0  0  0  0  0  0  0
    0.8930    1.0860   -0.0080 C   0  0  0  0  0  0  0  0  0  0  0  0
   -0.4800    1.3010    0.0170 C   0  0  0  0  0  0  0  0  0  0  0  0
   -1.0330    2.6630    0.0340 C   0  0  0  0  0  0  0  0  0  0  0  0
   -1.3780    0.2460    0.0290 C   0  0  0  0  0  0  0  0  0  0  0  0
   -2.8420    0.5190    0.0560 C   0  0  0  0  0  0  0  0  0  0  0  0
   -0.8810   -1.0410    0.0140 C   0  0  0  0  0  0  0  0  0  0  0  0
   -1.8060   -2.2160    0.0260 C   0  0  0  0  0  0  0  0  0  0  0  0
    0.4970   -1.2470   -0.0110 C   0  0  0  0  0  0  0  0  0  0  0  0
    0.9770   -2.6660   -0.0260 C   0  0  0  0  0  0  0  0  0  0  0  0
    1.3950   -0.1920   -0.0230 C   0  0  0  0  0  0  0  0  0  0  0  0
    2.8300   -0.5280   -0.0490 C   0  0  0  0  0  0  0  0  0  0  0  0
  1  2  1  0
  2  3  2  0
  2 11  1  0
  3  4  1  0
  3  5  1  0
  5  6  1  0
  5  7  2  0
  7  8  1  0
  7  9  1  0
  9 10  1  0
  9 11  2  0
 11 12  1  0
M  END
$$$$
../data/sim100/83.pdb
     RDKit          3D

  4  3  0  0  0  0  0  0  0  0999 V2000
   -1.8770   -0.0910   -0.2140 C   0  0  0  0  0  0  0  0  0  0  0  0
   -0.4460    0.2020   -0.6600 C   0  0  0  0  0  0  0  0  0  0  0  0
    0.4440   -0.1430    0.5020 C   0  0  0  0  0  0  0  0  0  0  0  0
    1.8950    0.0840    0.2430 C   0  0  0  0  0  0  0  0  0  0  0  0
  1  2  1  0
  2  3  1  0
  3  4  1  0
M  END
$$$$
../data/sim100/84.pdb
     RDKit          3D

 12 12  0  0  1  0  0  0  0  0999 V2000
   -1.0450    3.0350   -0.7040 Br  0  0  0  0  0  0  0  0  0  0  0  0
   -0.5710    1.3470    0.1010 C   0  0  1  0  0  0  0  0  0  0  0  0
   -1.3930    0.2030   -0.4850 C   0  0  1  0  0  0  0  0  0  0  0  0
   -1.0440   -0.0030   -2.3700 Br  0  0  0  0  0  0  0  0  0  0  0  0
   -0.9700   -1.0340    0.3020 C   0  0  1  0  0  0  0  0  0  0  0  0
   -2.1300   -2.5120    0.0640 Br  0  0  0  0  0  0  0  0  0  0  0  0
    0.4700   -1.3230   -0.1410 C   0  0  2  0  0  0  0  0  0  0  0  0
    1.0420   -3.0720    0.3750 Br  0  0  0  0  0  0  0  0  0  0  0  0
    1.2890   -0.2230    0.5500 C   0  0  1  0  0  0  0  0  0  0  0  0
    3.1530   -0.5590    0.4910 Br  0  0  0  0  0  0  0  0  0  0  0  0
    0.8790    1.0690   -0.1030 C   0  0  2  0  0  0  0  0  0  0  0  0
    1.9870    2.4810    0.5340 Br  0  0  0  0  0  0  0  0  0  0  0  0
  2  1  1  6
  2  3  1  0
  2 11  1  0
  3  4  1  6
  3  5  1  0
  5  6  1  6
  5  7  1  0
  7  8  1  1
  7  9  1  0
  9 10  1  6
  9 11  1  0
 11 12  1  1
M  END
$$$$
../data/sim100/85.pdb
     RDKit          3D

  6  5  0  0  0  0  0  0  0  0999 V2000
   -1.2180   -1.2880    1.0710 Cl  0  0  0  0  0  0  0  0  0  0  0  0
   -0.6660   -0.2760   -0.2750 C   0  0  0  0  0  0  0  0  0  0  0  0
   -1.7410    1.1460   -0.3480 Cl  0  0  0  0  0  0  0  0  0  0  0  0
    0.7460    0.2510   -0.0130 C   0  0  0  0  0  0  0  0  0  0  0  0
    1.8650   -1.0950    0.1730 Cl  0  0  0  0  0  0  0  0  0  0  0  0
    0.6450    1.2520    1.4660 Cl  0  0  0  0  0  0  0  0  0  0  0  0
  1  2  1  0
  2  3  1  0
  2  4  1  0
  4  5  1  0
  4  6  1  0
M  END
$$$$
../data/sim100/86.pdb
     RDKit          3D

  4  3  0  0  0  0  0  0  0  0999 V2000
   -1.2300    0.0070    1.2610 C   0  0  0  0  0  0  0  0  0  0  0  0
   -0.4780   -0.0610    0.2850 C   0  0  0  0  0  0  0  0  0  0  0  0
    0.3610   -0.1400   -0.8100 C   0  0  0  0  0  0  0  0  0  0  0  0
    1.6590    0.2940   -0.7270 C   0  0  0  0  0  0  0  0  0  0  0  0
  1  2  2  0
  2  3  1  0
  3  4  2  0
M  END
$$$$
../data/sim100/87.pdb
     RDKit          3D

  6  5  0  0  0  0  0  0  0  0999 V2000
    1.1400   -0.6970   -0.9450 C   0  0  0  0  0  0  0  0  0  0  0  0
    0.7490   -0.1830    0.4160 C   0  0  0  0  0  0  0  0  0  0  0  0
    1.5770    1.0290    0.7110 C   0  0  0  0  0  0  0  0  0  0  0  0
   -0.7270    0.0360    0.5600 C   0  0  0  0  0  0  0  0  0  0  0  0
   -1.4340   -1.2730    0.3370 C   0  0  0  0  0  0  0  0  0  0  0  0
   -1.2890    1.0340   -0.4050 C   0  0  0  0  0  0  0  0  0  0  0  0
  1  2  1  0
  2  3  1  0
  2  4  1  0
  4  5  1  0
  4  6  1  0
M  END
$$$$
../data/sim100/88.pdb
     RDKit          3D

  4  3  0  0  0  0  0  0  0  0999 V2000
   -2.0360   -0.0480    0.0850 C   0  0  0  0  0  0  0  0  0  0  0  0
   -0.8140    1.1680    0.6160 S   0  0  0  0  0  0  0  0  0  0  0  0
    0.8430    1.0520   -0.7170 S   0  0  0  0  0  0  0  0  0  0  0  0
    2.0340   -0.1490   -0.0880 C   0  0  0  0  0  0  0  0  0  0  0  0
  1  2  1  0
  2  3  1  0
  3  4  1  0
M  END
$$$$
../data/sim100/90.pdb
     RDKit          3D

  6  5  0  0  0  0  0  0  0  0999 V2000
    3.0110    0.0440   -0.6970 O   0  0  0  0  0  0  0  0  0  0  0  0
    1.7990    0.6350   -0.3010 C   0  0  0  0  0  0  0  0  0  0  0  0
    0.6430   -0.3500   -0.5000 C   0  0  0  0  0  0  0  0  0  0  0  0
   -0.6180    0.3520   -0.0560 C   0  0  0  0  0  0  0  0  0  0  0  0
   -1.8360   -0.5320   -0.2080 C   0  0  0  0  0  0  0  0  0  0  0  0
   -2.9940    0.0830    0.1890 O   0  0  0  0  0  0  0  0  0  0  0  0
  1  2  1  0
  2  3  1  0
  3  4  1  0
  4  5  1  0
  5  6  1  0
M  END
$$$$
../data/sim100/91.pdb
     RDKit          3D

  5  4  0  0  0  0  0  0  0  0999 V2000
    2.1860    0.6860   -0.1500 O   0  0  0  0  0  0  0  0  0  0  0  0
    0.8150    0.7950    0.0750 C   0  0  0  0  0  0  0  0  0  0  0  0
    0.2170   -0.5770    0.2630 C   0  0  0  0  0  0  0  0  0  0  0  0
   -1.2610   -0.5400    0.5110 C   0  0  0  0  0  0  0  0  0  0  0  0
   -1.9680    0.0420   -0.5310 O   0  0  0  0  0  0  0  0  0  0  0  0
  1  2  1  0
  2  3  1  0
  3  4  1  0
  4  5  1  0
M  END
$$$$
../data/sim100/92.pdb
     RDKit          3D

  4  3  0  0  0  0  0  0  0  0999 V2000
    1.4070    0.0980   -0.1160 C   0  0  0  0  0  0  0  0  0  0  0  0
    0.1410   -0.0960    0.6830 C   0  0  0  0  0  0  0  0  0  0  0  0
   -1.0880    0.3560   -0.0920 C   0  0  0  0  0  0  0  0  0  0  0  0
   -1.2300   -0.3480   -1.2570 O   0  0  0  0  0  0  0  0  0  0  0  0
  1  2  1  0
  2  3  1  0
  3  4  1  0
M  END
$$$$
../data/sim100/93.pdb
     RDKit          3D

 12 12  0  0  1  0  0  0  0  0999 V2000
    2.0360   -1.9430   -0.6060 O   0  0  0  0  0  0  0  0  0  0  0  0
    0.9860   -1.0820   -0.5850 C   0  0  2  0  0  0  0  0  0  0  0  0
    1.3420    0.3410   -0.2690 C   0  0  2  0  0  0  0  0  0  0  0  0
    1.9300    0.4650    0.9840 O   0  0  0  0  0  0  0  0  0  0  0  0
    0.1940    1.2610   -0.4240 C   0  0  2  0  0  0  0  0  0  0  0  0
    0.5600    2.7090    0.5860 Cl  0  0  0  0  0  0  0  0  0  0  0  0
   -1.1310    0.7580   -0.0190 C   0  0  1  0  0  0  0  0  0  0  0  0
   -2.1150    1.3440   -0.8510 O   0  0  0  0  0  0  0  0  0  0  0  0
   -1.3330   -0.7080   -0.0610 C   0  0  2  0  0  0  0  0  0  0  0  0
   -2.4260   -1.0760    0.6900 O   0  0  0  0  0  0  0  0  0  0  0  0
   -0.1010   -1.4820    0.4230 C   0  0  2  0  0  0  0  0  0  0  0  0
    0.2830   -0.8340    2.0390 Cl  0  0  0  0  0  0  0  0  0  0  0  0
  2  1  1  1
  2  3  1  0
  2 11  1  0
  3  4  1  1
  3  5  1  0
  5  6  1  1
  5  7  1  0
  7  8  1  6
  7  9  1  0
  9 10  1  1
  9 11  1  0
 11 12  1  1
M  END
$$$$
../data/sim100/94.pdb
     RDKit          3D

  5  5  0  0  0  0  0  0  0  0999 V2000
    1.6280    0.6980    0.5500 O   0  0  0  0  0  0  0  0  0  0  0  0
    0.8230    0.2450   -0.4780 C   0  0  0  0  0  0  0  0  0  0  0  0
   -0.5470    0.9320   -0.3670 C   0  0  0  0  0  0  0  0  0  0  0  0
   -0.9280   -0.2130    0.5630 C   0  0  0  0  0  0  0  0  0  0  0  0
    0.0860   -1.0500   -0.2100 C   0  0  0  0  0  0  0  0  0  0  0  0
  1  2  1  0
  2  3  1  0
  2  5  1  0
  3  4  1  0
  4  5  1  0
M  END
$$$$
../data/sim100/95.pdb
     RDKit          3D

  7  7  0  0  1  0  0  0  0  0999 V2000
    1.5710   -0.1410    1.1280 O   0  0  0  0  0  0  0  0  0  0  0  0
    1.1240    0.0980   -0.1750 C   0  0  1  0  0  0  0  0  0  0  0  0
    0.4740   -1.1870   -0.7060 C   0  0  0  0  0  0  0  0  0  0  0  0
   -0.8750   -1.2040   -0.0690 C   0  0  0  0  0  0  0  0  0  0  0  0
   -1.0990    0.1670    0.5520 C   0  0  0  0  0  0  0  0  0  0  0  0
   -0.0840    1.0180   -0.1790 C   0  0  1  0  0  0  0  0  0  0  0  0
    0.1520    2.2290    0.4140 O   0  0  0  0  0  0  0  0  0  0  0  0
  2  1  1  1
  2  3  1  0
  2  6  1  0
  3  4  1  0
  4  5  1  0
  5  6  1  0
  6  7  1  1
M  END
$$$$
../data/sim100/96.pdb
     RDKit          3D

  7  6  0  0  0  0  0  0  0  0999 V2000
   -0.6520   -1.4060    0.6020 O   0  0  0  0  0  0  0  0  0  0  0  0
   -0.4320   -0.4270   -0.3900 C   0  0  0  0  0  0  0  0  0  0  0  0
   -1.4440    0.5030   -0.4050 O   0  0  0  0  0  0  0  0  0  0  0  0
    0.8680    0.2500   -0.0300 C   0  0  0  0  0  0  0  0  0  0  0  0
    2.1820   -0.9600   -0.0160 Cl  0  0  0  0  0  0  0  0  0  0  0  0
    0.7090    0.9520    1.6030 Cl  0  0  0  0  0  0  0  0  0  0  0  0
    1.2430    1.5890   -1.1320 Cl  0  0  0  0  0  0  0  0  0  0  0  0
  1  2  1  0
  2  3  1  0
  2  4  1  0
  4  5  1  0
  4  6  1  0
  4  7  1  0
M  END
$$$$
../data/sim100/97.pdb
     RDKit          3D

  5  4  0  0  0  0  0  0  0  0999 V2000
   -1.4840    0.0820    0.6090 O   0  0  0  0  0  0  0  0  0  0  0  0
   -0.5950   -0.3550   -0.3410 C   0  0  0  0  0  0  0  0  0  0  0  0
    0.8260    0.0860   -0.0930 C   0  0  0  0  0  0  0  0  0  0  0  0
    1.0000    1.8400   -0.0600 Cl  0  0  0  0  0  0  0  0  0  0  0  0
    1.4970   -0.6900    1.3590 Cl  0  0  0  0  0  0  0  0  0  0  0  0
  1  2  1  0
  2  3  1  0
  3  4  1  0
  3  5  1  0
M  END
$$$$
../data/sim100/98.pdb
     RDKit          3D

  5  4  0  0  0  0  0  0  0  0999 V2000
   -0.7990   -1.0710    0.8860 C   0  0  0  0  0  0  0  0  0  0  0  0
    0.0260    0.0570    0.3180 C   0  0  0  0  0  0  0  0  0  0  0  0
   -0.8380    1.1590   -0.2080 C   0  0  0  0  0  0  0  0  0  0  0  0
    1.0040   -0.4630   -0.7190 C   0  0  0  0  0  0  0  0  0  0  0  0
    1.7720    0.5690   -1.2520 O   0  0  0  0  0  0  0  0  0  0  0  0
  1  2  1  0
  2  3  1  0
  2  4  1  0
  4  5  1  0
M  END
$$$$
../data/sim100/99.pdb
     RDKit          3D

  8  7  0  0  0  0  0  0  0  0999 V2000
   -1.2470   -0.4180   -1.3640 C   0  0  0  0  0  0  0  0  0  0  0  0
   -0.9260    0.5740   -0.2900 C   0  0  0  0  0  0  0  0  0  0  0  0
   -2.2630    1.0720    0.2790 C   0  0  0  0  0  0  0  0  0  0  0  0
   -0.1320    0.0530    0.8500 C   0  0  0  0  0  0  0  0  0  0  0  0
   -0.8660   -0.9830    1.4440 O   0  0  0  0  0  0  0  0  0  0  0  0
    1.2730   -0.3160    0.5720 C   0  0  0  0  0  0  0  0  0  0  0  0
    1.4860   -1.3760   -0.4450 C   0  0  0  0  0  0  0  0  0  0  0  0
    2.0600    0.9230    0.2030 C   0  0  0  0  0  0  0  0  0  0  0  0
  1  2  1  0
  2  3  1  0
  2  4  1  0
  4  5  1  0
  4  6  1  0
  6  7  1  0
  6  8  1  0
M  END
$$$$
