REMARK  Name = ../data/sim29/CHEMBL155014.pdb
REMARK  11 active torsions:
REMARK  status: ('A' for Active; 'I' for Inactive)
REMARK    1  A    between atoms: C1_1  and  C2_2
REMARK    2  A    between atoms: C2_2  and  C3_3
REMARK    3  A    between atoms: C3_3  and  C4_4
REMARK    4  A    between atoms: C3_3  and  C10_12
REMARK    5  A    between atoms: C7_7  and  N1_8
REMARK    6  A    between atoms: C8_9  and  O1_10
REMARK    7  A    between atoms: C10_12  and  C11_13
REMARK    8  A    between atoms: C10_12  and  C13_15
REMARK    9  A    between atoms: C11_13  and  C12_14
REMARK   10  A    between atoms: C16_18  and  N2_19
REMARK   11  A    between atoms: C17_20  and  O2_21
REMARK                            x       y       z     vdW  Elec       q    Type
REMARK                         _______ _______ _______ _____ _____    ______ ____
ROOT
ATOM      1  C3  UNL     1      -0.547  -0.648  -0.555  0.00  0.00    +0.000 C 
ENDROOT
BRANCH   1   2
ATOM      2  C4  UNL     1      -1.885   0.001  -0.470  0.00  0.00    +0.000 A 
ATOM      3  C5  UNL     1      -3.069  -0.667  -0.440  0.00  0.00    +0.000 A 
ATOM      4  C6  UNL     1      -4.265   0.033  -0.330  0.00  0.00    +0.000 A 
ATOM      5  C7  UNL     1      -4.264   1.390  -0.252  0.00  0.00    +0.000 A 
ATOM      6  C8  UNL     1      -3.074   2.070  -0.283  0.00  0.00    +0.000 A 
ATOM      7  C9  UNL     1      -1.896   1.382  -0.391  0.00  0.00    +0.000 A 
BRANCH   5   8
ATOM      8  N1  UNL     1      -5.456   2.120  -0.140  0.00  0.00    +0.000 N 
ATOM      9  H   UNL     1      -6.321   1.650  -0.116  0.00  0.00    +0.000 HD
ATOM     10  H   UNL     1      -5.428   3.103  -0.085  0.00  0.00    +0.000 HD
ENDBRANCH   5   8
BRANCH   6  11
ATOM     11  O1  UNL     1      -3.043   3.464  -0.206  0.00  0.00    +0.000 OA
ATOM     12  H   UNL     1      -3.842   3.947  -0.132  0.00  0.00    +0.000 HD
ENDBRANCH   6  11
ENDBRANCH   1   2
BRANCH   1  14
ATOM     13  C1  UNL     1      -1.160  -3.137  -0.655  0.00  0.00    +0.000 C 
ATOM     14  C2  UNL     1      -0.455  -1.960  -1.176  0.00  0.00    +0.000 C 
ENDBRANCH   1  14
BRANCH   1  15
ATOM     15  C10 UNL     1       0.319  -0.266   0.581  0.00  0.00    +0.000 C 
BRANCH  15  16
ATOM     16  C13 UNL     1       1.666   0.247   0.257  0.00  0.00    +0.000 A 
ATOM     17  C14 UNL     1       2.271   1.038   1.249  0.00  0.00    +0.000 A 
ATOM     18  C15 UNL     1       3.517   1.602   1.097  0.00  0.00    +0.000 A 
ATOM     19  C16 UNL     1       4.229   1.394  -0.080  0.00  0.00    +0.000 A 
ATOM     20  C17 UNL     1       3.655   0.624  -1.061  0.00  0.00    +0.000 A 
ATOM     21  C18 UNL     1       2.384   0.067  -0.870  0.00  0.00    +0.000 A 
BRANCH  19  22
ATOM     22  N2  UNL     1       5.512   1.988  -0.208  0.00  0.00    +0.000 N 
ATOM     23  H   UNL     1       5.878   2.532   0.526  0.00  0.00    +0.000 HD
ATOM     24  H   UNL     1       6.036   1.856  -1.031  0.00  0.00    +0.000 HD
ENDBRANCH  19  22
BRANCH  20  25
ATOM     25  O2  UNL     1       4.336   0.399  -2.240  0.00  0.00    +0.000 OA
ATOM     26  H   UNL     1       5.186   0.771  -2.368  0.00  0.00    +0.000 HD
ENDBRANCH  20  25
ENDBRANCH  15  16
BRANCH  15  27
ATOM     27  C11 UNL     1       0.310  -1.079   1.830  0.00  0.00    +0.000 C 
ATOM     28  C12 UNL     1       0.743  -2.493   1.757  0.00  0.00    +0.000 C 
ENDBRANCH  15  27
ENDBRANCH   1  15
TORSDOF 9
