REMARK  Name = ../data/sim29/CHEMBL1350643.pdb
REMARK  6 active torsions:
REMARK  status: ('A' for Active; 'I' for Inactive)
REMARK    1  A    between atoms: N1_1  and  C1_2
REMARK    2  A    between atoms: C4_5  and  C5_6
REMARK    3  A    between atoms: C5_6  and  C6_7
REMARK    4  A    between atoms: C9_10  and  N2_11
REMARK    5  A    between atoms: C10_12  and  O1_13
REMARK    6  A    between atoms: C13_16  and  O2_17
REMARK                            x       y       z     vdW  Elec       q    Type
REMARK                         _______ _______ _______ _____ _____    ______ ____
ROOT
ATOM      1  C5  UNL     1       0.142  -1.024  -1.595  0.00  0.00    +0.000 C 
ENDROOT
BRANCH   1   5
ATOM      2  C1  UNL     1       3.488   0.360   0.747  0.00  0.00    +0.000 A 
ATOM      3  C2  UNL     1       2.872  -0.847   1.010  0.00  0.00    +0.000 A 
ATOM      4  C3  UNL     1       1.801  -1.297   0.266  0.00  0.00    +0.000 A 
ATOM      5  C4  UNL     1       1.299  -0.552  -0.781  0.00  0.00    +0.000 A 
ATOM      6  C12 UNL     1       1.920   0.658  -1.042  0.00  0.00    +0.000 A 
ATOM      7  C13 UNL     1       2.990   1.110  -0.299  0.00  0.00    +0.000 A 
BRANCH   2   8
ATOM      8  N1  UNL     1       4.598   0.831   1.515  0.00  0.00    +0.000 N 
ATOM      9  H   UNL     1       4.947   0.289   2.259  0.00  0.00    +0.000 HD
ATOM     10  H   UNL     1       5.014   1.697   1.299  0.00  0.00    +0.000 HD
ENDBRANCH   2   8
BRANCH   7  11
ATOM     11  O2  UNL     1       3.582   2.341  -0.604  0.00  0.00    +0.000 OA
ATOM     12  H   UNL     1       4.309   2.649  -0.100  0.00  0.00    +0.000 HD
ENDBRANCH   7  11
ENDBRANCH   1   5
BRANCH   1  13
ATOM     13  C6  UNL     1      -1.151  -0.567  -1.032  0.00  0.00    +0.000 A 
ATOM     14  C7  UNL     1      -1.724   0.631  -1.406  0.00  0.00    +0.000 A 
ATOM     15  C8  UNL     1      -2.927   1.035  -0.869  0.00  0.00    +0.000 A 
ATOM     16  C9  UNL     1      -3.546   0.222   0.047  0.00  0.00    +0.000 A 
ATOM     17  C10 UNL     1      -3.018  -0.995   0.462  0.00  0.00    +0.000 A 
ATOM     18  C11 UNL     1      -1.807  -1.354  -0.108  0.00  0.00    +0.000 A 
BRANCH  16  19
ATOM     19  N2  UNL     1      -4.782   0.625   0.605  0.00  0.00    +0.000 N 
ATOM     20  H   UNL     1      -5.188   1.481   0.336  0.00  0.00    +0.000 HD
ATOM     21  H   UNL     1      -5.236   0.050   1.262  0.00  0.00    +0.000 HD
ENDBRANCH  16  19
BRANCH  17  22
ATOM     22  O1  UNL     1      -3.659  -1.807   1.391  0.00  0.00    +0.000 OA
ATOM     23  H   UNL     1      -4.477  -1.540   1.761  0.00  0.00    +0.000 HD
ENDBRANCH  17  22
ENDBRANCH   1  13
TORSDOF 6
