REMARK  Name = ../data/sim29/CHEMBL2062273.pdb
REMARK  13 active torsions:
REMARK  status: ('A' for Active; 'I' for Inactive)
REMARK    1  A    between atoms: N_1  and  C_2
REMARK    2  A    between atoms: C_2  and  C_3
REMARK    3  A    between atoms: C_3  and  O_4
REMARK    4  A    between atoms: C_3  and  C_5
REMARK    5  A    between atoms: C_8  and  O_9
REMARK    6  A    between atoms: C_10  and  O_11
REMARK    7  A    between atoms: C_14  and  O_15
REMARK    8  A    between atoms: C_14  and  C_16
REMARK    9  A    between atoms: C_16  and  O_17
REMARK   10  A    between atoms: C_16  and  C_18
REMARK   11  A    between atoms: C_18  and  O_19
REMARK   12  A    between atoms: C_18  and  C_20
REMARK   13  A    between atoms: C_20  and  O_22
REMARK                            x       y       z     vdW  Elec       q    Type
REMARK                         _______ _______ _______ _____ _____    ______ ____
ROOT
ATOM      1  C   UNL     1       0.146  -0.346  -0.240  0.00  0.00    +0.000 A 
ATOM      2  C   UNL     1      -0.541  -1.570  -0.248  0.00  0.00    +0.000 A 
ATOM      3  C   UNL     1      -1.916  -1.591  -0.238  0.00  0.00    +0.000 A 
ATOM      4  C   UNL     1      -2.633  -0.429  -0.220  0.00  0.00    +0.000 A 
ATOM      5  C   UNL     1      -1.946   0.766  -0.213  0.00  0.00    +0.000 A 
ATOM      6  C   UNL     1      -0.555   0.819  -0.223  0.00  0.00    +0.000 A 
ENDROOT
BRANCH   4   7
ATOM      7  O   UNL     1      -4.028  -0.421  -0.209  0.00  0.00    +0.000 OA
ATOM      8  H   UNL     1      -4.501  -1.230  -0.214  0.00  0.00    +0.000 HD
ENDBRANCH   4   7
BRANCH   5   9
ATOM      9  O   UNL     1      -2.660   1.963  -0.195  0.00  0.00    +0.000 OA
ATOM     10  H   UNL     1      -3.597   1.950  -0.188  0.00  0.00    +0.000 HD
ENDBRANCH   5   9
BRANCH   1  11
ATOM     11  C   UNL     1       1.616  -0.493  -0.258  0.00  0.00    +0.000 C 
BRANCH  11  12
ATOM     12  O   UNL     1       1.885  -1.435  -1.286  0.00  0.00    +0.000 OA
ATOM     13  H   UNL     1       1.575  -1.084  -2.135  0.00  0.00    +0.000 HD
ENDBRANCH  11  12
BRANCH  11  14
ATOM     14  C   UNL     1       2.396   0.733  -0.539  0.00  0.00    +0.000 C 
BRANCH  14  15
ATOM     15  N   UNL     1       2.195   1.739   0.482  0.00  0.00    +0.000 N 
ATOM     16  H   UNL     1       2.746   2.567   0.256  0.00  0.00    +0.000 HD
ATOM     17  H   UNL     1       2.490   1.370   1.386  0.00  0.00    +0.000 HD
ATOM     18  H   UNL     1       1.207   1.989   0.523  0.00  0.00    +0.000 HD
ENDBRANCH  14  15
ENDBRANCH  11  14
ENDBRANCH   1  11
TORSDOF 6
REMARK  Name = ../data/sim29/CHEMBL2062273.pdb
REMARK  13 active torsions:
REMARK  status: ('A' for Active; 'I' for Inactive)
REMARK    1  A    between atoms: N_1  and  C_2
REMARK    2  A    between atoms: C_2  and  C_3
REMARK    3  A    between atoms: C_3  and  O_4
REMARK    4  A    between atoms: C_3  and  C_5
REMARK    5  A    between atoms: C_8  and  O_9
REMARK    6  A    between atoms: C_10  and  O_11
REMARK    7  A    between atoms: C_14  and  O_15
REMARK    8  A    between atoms: C_14  and  C_16
REMARK    9  A    between atoms: C_16  and  O_17
REMARK   10  A    between atoms: C_16  and  C_18
REMARK   11  A    between atoms: C_18  and  O_19
REMARK   12  A    between atoms: C_18  and  C_20
REMARK   13  A    between atoms: C_20  and  O_22
REMARK                            x       y       z     vdW  Elec       q    Type
REMARK                         _______ _______ _______ _____ _____    ______ ____
ROOT
ATOM      1  C   UNL     2       0.425  -0.260  -0.674  0.00  0.00    +0.000 C 
ENDROOT
BRANCH   1   3
ATOM      2  O   UNL     2       2.575  -1.258  -0.726  0.00  0.00    +0.000 OA
ATOM      3  C   UNL     2       1.857  -0.321  -0.325  0.00  0.00    +0.000 C 
BRANCH   3   4
ATOM      4  O   UNL     2       2.411   0.672   0.457  0.00  0.00    +0.000 OA
ATOM      5  H   UNL     2       1.878   1.380   0.762  0.00  0.00    +0.000 HD
ENDBRANCH   3   4
ENDBRANCH   1   3
BRANCH   1   6
ATOM      6  O   UNL     2       0.003  -1.305  -1.452  0.00  0.00    +0.000 OA
ATOM      7  H   UNL     2       0.111  -2.136  -0.964  0.00  0.00    +0.000 HD
ENDBRANCH   1   6
BRANCH   1   8
ATOM      8  C   UNL     2      -0.387  -0.120   0.606  0.00  0.00    +0.000 C 
BRANCH   8   9
ATOM      9  O   UNL     2       0.053   0.937   1.377  0.00  0.00    +0.000 OA
ATOM     10  H   UNL     2      -0.024   1.761   0.870  0.00  0.00    +0.000 HD
ENDBRANCH   8   9
BRANCH   8  11
ATOM     11  C   UNL     2      -1.805   0.017   0.196  0.00  0.00    +0.000 C 
ATOM     12  O   UNL     2      -2.299  -0.900  -0.511  0.00  0.00    +0.000 OA
BRANCH  11  13
ATOM     13  O   UNL     2      -2.605   1.096   0.551  0.00  0.00    +0.000 OA
ATOM     14  H   UNL     2      -2.253   1.787   1.077  0.00  0.00    +0.000 HD
ENDBRANCH  11  13
ENDBRANCH   8  11
ENDBRANCH   1   8
TORSDOF 7
