REMARK  Name = ../data/sim29/CHEMBL1612659.pdb
REMARK  7 active torsions:
REMARK  status: ('A' for Active; 'I' for Inactive)
REMARK    1  A    between atoms: C_1  and  C_2
REMARK    2  A    between atoms: C_2  and  N_3
REMARK    3  A    between atoms: C_2  and  C_4
REMARK    4  A    between atoms: C_4  and  O_5
REMARK    5  A    between atoms: C_4  and  C_6
REMARK    6  A    between atoms: C_9  and  O_10
REMARK    7  A    between atoms: C_11  and  O_12
REMARK                            x       y       z     vdW  Elec       q    Type
REMARK                         _______ _______ _______ _____ _____    ______ ____
ROOT
ATOM      1  C   UNL     1       0.342  -0.229   0.396  0.00  0.00    +0.000 A 
ATOM      2  C   UNL     1       0.901   0.895   0.966  0.00  0.00    +0.000 A 
ATOM      3  C   UNL     1       2.219   1.162   0.662  0.00  0.00    +0.000 A 
ATOM      4  C   UNL     1       2.967   0.357  -0.172  0.00  0.00    +0.000 A 
ATOM      5  C   UNL     1       2.412  -0.769  -0.745  0.00  0.00    +0.000 A 
ATOM      6  C   UNL     1       1.093  -1.041  -0.444  0.00  0.00    +0.000 A 
ENDROOT
BRANCH   4   7
ATOM      7  O   UNL     1       4.301   0.658  -0.458  0.00  0.00    +0.000 OA
ATOM      8  H   UNL     1       4.701   1.417  -0.081  0.00  0.00    +0.000 HD
ENDBRANCH   4   7
BRANCH   5   9
ATOM      9  O   UNL     1       3.160  -1.589  -1.589  0.00  0.00    +0.000 OA
ATOM     10  H   UNL     1       4.054  -1.379  -1.775  0.00  0.00    +0.000 HD
ENDBRANCH   5   9
BRANCH   1  11
ATOM     11  C   UNL     1      -1.075  -0.534   0.709  0.00  0.00    +0.000 C 
BRANCH  11  13
ATOM     12  C   UNL     1      -3.451  -0.090   0.057  0.00  0.00    +0.000 C 
ATOM     13  C   UNL     1      -2.023   0.306  -0.121  0.00  0.00    +0.000 C 
BRANCH  13  14
ATOM     14  N   UNL     1      -1.712   0.191  -1.544  0.00  0.00    +0.000 N 
ATOM     15  H   UNL     1      -1.846  -0.775  -1.844  0.00  0.00    +0.000 HD
ATOM     16  H   UNL     1      -0.743   0.466  -1.703  0.00  0.00    +0.000 HD
ATOM     17  H   UNL     1      -2.331   0.802  -2.078  0.00  0.00    +0.000 HD
ENDBRANCH  13  14
ENDBRANCH  11  13
BRANCH  11  18
ATOM     18  O   UNL     1      -1.386  -0.409   2.040  0.00  0.00    +0.000 OA
ATOM     19  H   UNL     1      -1.284   0.517   2.310  0.00  0.00    +0.000 HD
ENDBRANCH  11  18
ENDBRANCH   1  11
TORSDOF 6
REMARK  Name = ../data/sim29/CHEMBL1612659.pdb
REMARK  7 active torsions:
REMARK  status: ('A' for Active; 'I' for Inactive)
REMARK    1  A    between atoms: C_1  and  C_2
REMARK    2  A    between atoms: C_2  and  N_3
REMARK    3  A    between atoms: C_2  and  C_4
REMARK    4  A    between atoms: C_4  and  O_5
REMARK    5  A    between atoms: C_4  and  C_6
REMARK    6  A    between atoms: C_9  and  O_10
REMARK    7  A    between atoms: C_11  and  O_12
REMARK                            x       y       z     vdW  Elec       q    Type
REMARK                         _______ _______ _______ _____ _____    ______ ____
ROOT
ATOM      1 CL   UNL     2       0.689   0.000   0.000  0.00  0.00    +0.000 Cl
ATOM      2  H   UNL     2       1.917   0.000   0.000  0.00  0.00    +0.000 HD
ENDROOT
TORSDOF 0
