REMARK  Name = ../data/sim29/CHEMBL3637795.pdb
REMARK  9 active torsions:
REMARK  status: ('A' for Active; 'I' for Inactive)
REMARK    1  A    between atoms: N_1  and  C_2
REMARK    2  A    between atoms: C_5  and  C_6
REMARK    3  A    between atoms: C_6  and  O_7
REMARK    4  A    between atoms: C_6  and  C_8
REMARK    5  A    between atoms: C_8  and  N_9
REMARK    6  A    between atoms: N_9  and  C_10
REMARK    7  A    between atoms: C_10  and  C_11
REMARK    8  A    between atoms: C_11  and  C_12
REMARK    9  A    between atoms: C_19  and  O_20
REMARK                            x       y       z     vdW  Elec       q    Type
REMARK                         _______ _______ _______ _____ _____    ______ ____
ROOT
ATOM      1  C   UNL     1       1.648   1.596   1.314  0.00  0.00    +0.000 C 
ENDROOT
BRANCH   1   5
ATOM      2  C   UNL     1       4.682  -0.234  -1.141  0.00  0.00    +0.000 A 
ATOM      3  C   UNL     1       4.372   1.116  -1.219  0.00  0.00    +0.000 A 
ATOM      4  C   UNL     1       3.409   1.721  -0.447  0.00  0.00    +0.000 A 
ATOM      5  C   UNL     1       2.690   0.978   0.469  0.00  0.00    +0.000 A 
ATOM      6  C   UNL     1       2.984  -0.368   0.561  0.00  0.00    +0.000 A 
ATOM      7  C   UNL     1       3.952  -0.957  -0.220  0.00  0.00    +0.000 A 
BRANCH   2   8
ATOM      8  N   UNL     1       5.684  -0.820  -1.957  0.00  0.00    +0.000 N 
ATOM      9  H   UNL     1       6.181  -0.266  -2.601  0.00  0.00    +0.000 HD
ATOM     10  H   UNL     1       5.883  -1.781  -1.879  0.00  0.00    +0.000 HD
ENDBRANCH   2   8
BRANCH   7  11
ATOM     11  O   UNL     1       4.232  -2.321  -0.108  0.00  0.00    +0.000 OA
ATOM     12  H   UNL     1       4.894  -2.709  -0.646  0.00  0.00    +0.000 HD
ENDBRANCH   7  11
ENDBRANCH   1   5
BRANCH   1  13
ATOM     13  O   UNL     1       1.707   1.173   2.615  0.00  0.00    +0.000 OA
ATOM     14  H   UNL     1       1.574   0.213   2.649  0.00  0.00    +0.000 HD
ENDBRANCH   1  13
BRANCH   1  15
ATOM     15  C   UNL     1       0.308   1.336   0.645  0.00  0.00    +0.000 C 
BRANCH  15  16
ATOM     16  N   UNL     1       0.078  -0.086   0.676  0.00  0.00    +0.000 N 
ATOM     17  H   UNL     1       0.033  -0.402   1.645  0.00  0.00    +0.000 HD
ATOM     18  H   UNL     1       0.841  -0.565   0.197  0.00  0.00    +0.000 HD
BRANCH  16  19
ATOM     19  C   UNL     1      -1.158  -0.383   0.020  0.00  0.00    +0.000 C 
BRANCH  19  20
ATOM     20  C   UNL     1      -2.330   0.103   0.795  0.00  0.00    +0.000 C 
BRANCH  20  21
ATOM     21  C   UNL     1      -3.625  -0.207   0.129  0.00  0.00    +0.000 A 
ATOM     22  C   UNL     1      -4.200   0.671  -0.761  0.00  0.00    +0.000 A 
ATOM     23  C   UNL     1      -5.399   0.314  -1.335  0.00  0.00    +0.000 A 
ATOM     24  C   UNL     1      -6.030  -0.887  -1.045  0.00  0.00    +0.000 A 
ATOM     25  C   UNL     1      -5.448  -1.764  -0.151  0.00  0.00    +0.000 A 
ATOM     26  C   UNL     1      -4.235  -1.403   0.430  0.00  0.00    +0.000 A 
ENDBRANCH  20  21
ENDBRANCH  19  20
ENDBRANCH  16  19
ENDBRANCH  15  16
ENDBRANCH   1  15
TORSDOF 9
