REMARK  Name = ../data/sim29/CHEMBL2130595.pdb
REMARK  20 active torsions:
REMARK  status: ('A' for Active; 'I' for Inactive)
REMARK    1  A    between atoms: N_1  and  C_2
REMARK    2  A    between atoms: C_2  and  C_3
REMARK    3  A    between atoms: C_3  and  O_4
REMARK    4  A    between atoms: C_3  and  C_5
REMARK    5  A    between atoms: C_8  and  O_9
REMARK    6  A    between atoms: C_10  and  O_11
REMARK    7  A    between atoms: C_14  and  O_15
REMARK    8  A    between atoms: C_14  and  C_16
REMARK    9  A    between atoms: C_16  and  O_17
REMARK   10  A    between atoms: C_16  and  C_18
REMARK   11  A    between atoms: C_18  and  O_19
REMARK   12  A    between atoms: C_18  and  C_20
REMARK   13  A    between atoms: C_20  and  O_22
REMARK   14  A    between atoms: C_24  and  O_25
REMARK   15  A    between atoms: C_24  and  C_26
REMARK   16  A    between atoms: C_26  and  O_27
REMARK   17  A    between atoms: C_26  and  C_28
REMARK   18  A    between atoms: C_28  and  O_29
REMARK   19  A    between atoms: C_28  and  C_30
REMARK   20  A    between atoms: C_30  and  O_32
REMARK                            x       y       z     vdW  Elec       q    Type
REMARK                         _______ _______ _______ _____ _____    ______ ____
ROOT
ATOM      1  C   UNL     1      -0.080   0.276   0.105  0.00  0.00    +0.000 A 
ATOM      2  C   UNL     1       0.545   1.479  -0.188  0.00  0.00    +0.000 A 
ATOM      3  C   UNL     1       1.938   1.574  -0.157  0.00  0.00    +0.000 A 
ATOM      4  C   UNL     1       2.723   0.491   0.161  0.00  0.00    +0.000 A 
ATOM      5  C   UNL     1       2.087  -0.709   0.453  0.00  0.00    +0.000 A 
ATOM      6  C   UNL     1       0.712  -0.784   0.418  0.00  0.00    +0.000 A 
ENDROOT
BRANCH   4   7
ATOM      7  O   UNL     1       4.103   0.536   0.204  0.00  0.00    +0.000 OA
ATOM      8  H   UNL     1       4.552   1.335   0.010  0.00  0.00    +0.000 HD
ENDBRANCH   4   7
BRANCH   5   9
ATOM      9  O   UNL     1       2.856  -1.799   0.772  0.00  0.00    +0.000 OA
ATOM     10  H   UNL     1       3.790  -1.725   0.790  0.00  0.00    +0.000 HD
ENDBRANCH   5   9
BRANCH   1  11
ATOM     11  C   UNL     1      -1.546   0.240   0.056  0.00  0.00    +0.000 C 
BRANCH  11  12
ATOM     12  O   UNL     1      -2.020   0.883  -1.088  0.00  0.00    +0.000 OA
ATOM     13  H   UNL     1      -1.722   0.403  -1.876  0.00  0.00    +0.000 HD
ENDBRANCH  11  12
BRANCH  11  14
ATOM     14  C   UNL     1      -2.131  -1.136   0.083  0.00  0.00    +0.000 C 
BRANCH  14  15
ATOM     15  N   UNL     1      -3.578  -1.010   0.120  0.00  0.00    +0.000 N 
ATOM     16  H   UNL     1      -4.000  -1.939   0.139  0.00  0.00    +0.000 HD
ATOM     17  H   UNL     1      -3.897  -0.509  -0.709  0.00  0.00    +0.000 HD
ATOM     18  H   UNL     1      -3.853  -0.494   0.956  0.00  0.00    +0.000 HD
ENDBRANCH  14  15
ENDBRANCH  11  14
ENDBRANCH   1  11
TORSDOF 6
REMARK  Name = ../data/sim29/CHEMBL2130595.pdb
REMARK  20 active torsions:
REMARK  status: ('A' for Active; 'I' for Inactive)
REMARK    1  A    between atoms: N_1  and  C_2
REMARK    2  A    between atoms: C_2  and  C_3
REMARK    3  A    between atoms: C_3  and  O_4
REMARK    4  A    between atoms: C_3  and  C_5
REMARK    5  A    between atoms: C_8  and  O_9
REMARK    6  A    between atoms: C_10  and  O_11
REMARK    7  A    between atoms: C_14  and  O_15
REMARK    8  A    between atoms: C_14  and  C_16
REMARK    9  A    between atoms: C_16  and  O_17
REMARK   10  A    between atoms: C_16  and  C_18
REMARK   11  A    between atoms: C_18  and  O_19
REMARK   12  A    between atoms: C_18  and  C_20
REMARK   13  A    between atoms: C_20  and  O_22
REMARK   14  A    between atoms: C_24  and  O_25
REMARK   15  A    between atoms: C_24  and  C_26
REMARK   16  A    between atoms: C_26  and  O_27
REMARK   17  A    between atoms: C_26  and  C_28
REMARK   18  A    between atoms: C_28  and  O_29
REMARK   19  A    between atoms: C_28  and  C_30
REMARK   20  A    between atoms: C_30  and  O_32
REMARK                            x       y       z     vdW  Elec       q    Type
REMARK                         _______ _______ _______ _____ _____    ______ ____
ROOT
ATOM      1  C   UNL     2       0.666  -0.612   0.276  0.00  0.00    +0.000 C 
ENDROOT
BRANCH   1   3
ATOM      2  O   UNL     2       2.644   0.254  -0.638  0.00  0.00    +0.000 OA
ATOM      3  C   UNL     2       1.538   0.496  -0.087  0.00  0.00    +0.000 C 
BRANCH   3   4
ATOM      4  O   UNL     2       1.263   1.836   0.121  0.00  0.00    +0.000 OA
ATOM      5  H   UNL     2       0.458   2.092   0.527  0.00  0.00    +0.000 HD
ENDBRANCH   3   4
ENDBRANCH   1   3
BRANCH   1   6
ATOM      6  O   UNL     2       1.293  -1.825  -0.071  0.00  0.00    +0.000 OA
ATOM      7  H   UNL     2       1.411  -1.864  -1.033  0.00  0.00    +0.000 HD
ENDBRANCH   1   6
BRANCH   1   8
ATOM      8  C   UNL     2      -0.666  -0.658  -0.438  0.00  0.00    +0.000 C 
BRANCH   8   9
ATOM      9  O   UNL     2      -1.297  -1.814   0.086  0.00  0.00    +0.000 OA
ATOM     10  H   UNL     2      -1.404  -1.717   1.045  0.00  0.00    +0.000 HD
ENDBRANCH   8   9
BRANCH   8  11
ATOM     11  C   UNL     2      -1.563   0.461  -0.142  0.00  0.00    +0.000 C 
ATOM     12  O   UNL     2      -2.669   0.334   0.490  0.00  0.00    +0.000 OA
BRANCH  11  13
ATOM     13  O   UNL     2      -1.270   1.752  -0.532  0.00  0.00    +0.000 OA
ATOM     14  H   UNL     2      -0.478   1.932  -1.000  0.00  0.00    +0.000 HD
ENDBRANCH  11  13
ENDBRANCH   8  11
ENDBRANCH   1   8
TORSDOF 7
REMARK  Name = ../data/sim29/CHEMBL2130595.pdb
REMARK  20 active torsions:
REMARK  status: ('A' for Active; 'I' for Inactive)
REMARK    1  A    between atoms: N_1  and  C_2
REMARK    2  A    between atoms: C_2  and  C_3
REMARK    3  A    between atoms: C_3  and  O_4
REMARK    4  A    between atoms: C_3  and  C_5
REMARK    5  A    between atoms: C_8  and  O_9
REMARK    6  A    between atoms: C_10  and  O_11
REMARK    7  A    between atoms: C_14  and  O_15
REMARK    8  A    between atoms: C_14  and  C_16
REMARK    9  A    between atoms: C_16  and  O_17
REMARK   10  A    between atoms: C_16  and  C_18
REMARK   11  A    between atoms: C_18  and  O_19
REMARK   12  A    between atoms: C_18  and  C_20
REMARK   13  A    between atoms: C_20  and  O_22
REMARK   14  A    between atoms: C_24  and  O_25
REMARK   15  A    between atoms: C_24  and  C_26
REMARK   16  A    between atoms: C_26  and  O_27
REMARK   17  A    between atoms: C_26  and  C_28
REMARK   18  A    between atoms: C_28  and  O_29
REMARK   19  A    between atoms: C_28  and  C_30
REMARK   20  A    between atoms: C_30  and  O_32
REMARK                            x       y       z     vdW  Elec       q    Type
REMARK                         _______ _______ _______ _____ _____    ______ ____
ROOT
ATOM      1  C   UNL     3       0.638  -0.663  -0.244  0.00  0.00    +0.000 C 
ENDROOT
BRANCH   1   3
ATOM      2  O   UNL     3       1.590   0.424   1.615  0.00  0.00    +0.000 OA
ATOM      3  C   UNL     3       1.396   0.434   0.375  0.00  0.00    +0.000 C 
BRANCH   3   4
ATOM      4  O   UNL     3       1.920   1.496  -0.344  0.00  0.00    +0.000 OA
ATOM      5  H   UNL     3       1.797   1.540  -1.272  0.00  0.00    +0.000 HD
ENDBRANCH   3   4
ENDBRANCH   1   3
BRANCH   1   6
ATOM      6  O   UNL     3       0.238  -1.584   0.716  0.00  0.00    +0.000 OA
ATOM      7  H   UNL     3      -0.355  -1.152   1.351  0.00  0.00    +0.000 HD
ENDBRANCH   1   6
BRANCH   1   8
ATOM      8  C   UNL     3      -0.625  -0.172  -0.928  0.00  0.00    +0.000 C 
BRANCH   8   9
ATOM      9  O   UNL     3      -1.223  -1.298  -1.490  0.00  0.00    +0.000 OA
ATOM     10  H   UNL     3      -1.402  -1.950  -0.795  0.00  0.00    +0.000 HD
ENDBRANCH   8   9
BRANCH   8  11
ATOM     11  C   UNL     3      -1.551   0.374   0.091  0.00  0.00    +0.000 C 
ATOM     12  O   UNL     3      -2.645  -0.186   0.301  0.00  0.00    +0.000 OA
BRANCH  11  13
ATOM     13  O   UNL     3      -1.138   1.512   0.776  0.00  0.00    +0.000 OA
ATOM     14  H   UNL     3      -0.306   1.898   0.584  0.00  0.00    +0.000 HD
ENDBRANCH  11  13
ENDBRANCH   8  11
ENDBRANCH   1   8
TORSDOF 7
