REMARK  Name = ../data/sim29/CHEMBL2311152.pdb
REMARK  6 active torsions:
REMARK  status: ('A' for Active; 'I' for Inactive)
REMARK    1  A    between atoms: C_1  and  O_2
REMARK    2  A    between atoms: C_1  and  C_3
REMARK    3  A    between atoms: C_1  and  C_5
REMARK    4  A    between atoms: C_3  and  N_4
REMARK    5  A    between atoms: C_8  and  O_9
REMARK    6  A    between atoms: C_10  and  O_11
REMARK                            x       y       z     vdW  Elec       q    Type
REMARK                         _______ _______ _______ _____ _____    ______ ____
ROOT
ATOM      1  C   UNL     1      -0.103  -0.387   0.353  0.00  0.00    +0.000 A 
ATOM      2  C   UNL     1       0.581  -1.551   0.128  0.00  0.00    +0.000 A 
ATOM      3  C   UNL     1       1.949  -1.565   0.071  0.00  0.00    +0.000 A 
ATOM      4  C   UNL     1       2.674  -0.395   0.241  0.00  0.00    +0.000 A 
ATOM      5  C   UNL     1       1.978   0.762   0.465  0.00  0.00    +0.000 A 
ATOM      6  C   UNL     1       0.592   0.772   0.522  0.00  0.00    +0.000 A 
ENDROOT
BRANCH   4   7
ATOM      7  O   UNL     1       4.053  -0.346   0.194  0.00  0.00    +0.000 OA
ATOM      8  H   UNL     1       4.545  -1.129   0.042  0.00  0.00    +0.000 HD
ENDBRANCH   4   7
BRANCH   5   9
ATOM      9  O   UNL     1       2.691   1.960   0.641  0.00  0.00    +0.000 OA
ATOM     10  H   UNL     1       3.627   1.958   0.603  0.00  0.00    +0.000 HD
ENDBRANCH   5   9
BRANCH   1  11
ATOM     11  C   UNL     1      -1.586  -0.333   0.421  0.00  0.00    +0.000 C 
BRANCH  11  12
ATOM     12  O   UNL     1      -2.014   0.435   1.499  0.00  0.00    +0.000 OA
ATOM     13  H   UNL     1      -1.686   1.343   1.400  0.00  0.00    +0.000 HD
ENDBRANCH  11  12
BRANCH  11  14
ATOM     14  C   UNL     1      -2.120   0.297  -0.869  0.00  0.00    +0.000 C 
BRANCH  14  15
ATOM     15  N   UNL     1      -3.572   0.313  -0.797  0.00  0.00    +0.000 N 
ATOM     16  H   UNL     1      -3.918  -0.641  -0.693  0.00  0.00    +0.000 HD
ATOM     17  H   UNL     1      -3.950   0.720  -1.652  0.00  0.00    +0.000 HD
ATOM     18  H   UNL     1      -3.867   0.871   0.004  0.00  0.00    +0.000 HD
ENDBRANCH  14  15
ENDBRANCH  11  14
ENDBRANCH   1  11
TORSDOF 6
