REMARK  Name = ../data/sim29/CHEMBL85811.pdb
REMARK  5 active torsions:
REMARK  status: ('A' for Active; 'I' for Inactive)
REMARK    1  A    between atoms: N1_1  and  C1_2
REMARK    2  A    between atoms: C4_5  and  C5_6
REMARK    3  A    between atoms: C8_9  and  N2_10
REMARK    4  A    between atoms: C9_11  and  O1_12
REMARK    5  A    between atoms: C12_15  and  O2_16
REMARK                            x       y       z     vdW  Elec       q    Type
REMARK                         _______ _______ _______ _____ _____    ______ ____
ROOT
ATOM      1  C1  UNL     1       3.576  -0.292  -0.111  0.00  0.00    +0.000 A 
ATOM      2  C2  UNL     1       2.817  -1.081  -0.949  0.00  0.00    +0.000 A 
ATOM      3  C3  UNL     1       1.441  -0.993  -0.909  0.00  0.00    +0.000 A 
ATOM      4  C4  UNL     1       0.788  -0.131  -0.048  0.00  0.00    +0.000 A 
ATOM      5  C11 UNL     1       1.582   0.643   0.774  0.00  0.00    +0.000 A 
ATOM      6  C12 UNL     1       2.957   0.580   0.761  0.00  0.00    +0.000 A 
ENDROOT
BRANCH   4   7
ATOM      7  C5  UNL     1      -0.678  -0.041  -0.009  0.00  0.00    +0.000 A 
ATOM      8  C6  UNL     1      -1.343   0.269   1.160  0.00  0.00    +0.000 A 
ATOM      9  C7  UNL     1      -2.721   0.360   1.226  0.00  0.00    +0.000 A 
ATOM     10  C8  UNL     1      -3.497   0.142   0.109  0.00  0.00    +0.000 A 
ATOM     11  C9  UNL     1      -2.842  -0.169  -1.064  0.00  0.00    +0.000 A 
ATOM     12  C10 UNL     1      -1.450  -0.261  -1.130  0.00  0.00    +0.000 A 
BRANCH  10  13
ATOM     13  N2  UNL     1      -4.917   0.238   0.184  0.00  0.00    +0.000 N 
ATOM     14  H   UNL     1      -5.351   0.462   1.039  0.00  0.00    +0.000 HD
ATOM     15  H   UNL     1      -5.464   0.080  -0.619  0.00  0.00    +0.000 HD
ENDBRANCH  10  13
BRANCH  11  16
ATOM     16  O1  UNL     1      -3.601  -0.394  -2.205  0.00  0.00    +0.000 OA
ATOM     17  H   UNL     1      -4.535  -0.333  -2.166  0.00  0.00    +0.000 HD
ENDBRANCH  11  16
ENDBRANCH   4   7
BRANCH   1  18
ATOM     18  N1  UNL     1       5.008  -0.339  -0.107  0.00  0.00    +0.000 N 
ATOM     19  H   UNL     1       5.482  -0.950  -0.716  0.00  0.00    +0.000 HD
ATOM     20  H   UNL     1       5.518   0.240   0.505  0.00  0.00    +0.000 HD
ENDBRANCH   1  18
BRANCH   6  21
ATOM     21  O2  UNL     1       3.734   1.387   1.617  0.00  0.00    +0.000 OA
ATOM     22  H   UNL     1       4.669   1.330   1.594  0.00  0.00    +0.000 HD
ENDBRANCH   6  21
TORSDOF 5
