REMARK  Name = ../data/sim29/CHEMBL1734806.pdb
REMARK  6 active torsions:
REMARK  status: ('A' for Active; 'I' for Inactive)
REMARK    1  A    between atoms: N_2  and  C_3
REMARK    2  A    between atoms: C_3  and  C_4
REMARK    3  A    between atoms: C_4  and  O_5
REMARK    4  A    between atoms: C_4  and  C_6
REMARK    5  A    between atoms: C_9  and  O_10
REMARK    6  A    between atoms: C_11  and  O_12
REMARK                            x       y       z     vdW  Elec       q    Type
REMARK                         _______ _______ _______ _____ _____    ______ ____
ROOT
ATOM      1 CL   UNL     1       0.684   0.000   0.000  0.00  0.00    +0.000 Cl
ATOM      2  H   UNL     1       1.912   0.000   0.000  0.00  0.00    +0.000 HD
ENDROOT
TORSDOF 0
REMARK  Name = ../data/sim29/CHEMBL1734806.pdb
REMARK  6 active torsions:
REMARK  status: ('A' for Active; 'I' for Inactive)
REMARK    1  A    between atoms: N_2  and  C_3
REMARK    2  A    between atoms: C_3  and  C_4
REMARK    3  A    between atoms: C_4  and  O_5
REMARK    4  A    between atoms: C_4  and  C_6
REMARK    5  A    between atoms: C_9  and  O_10
REMARK    6  A    between atoms: C_11  and  O_12
REMARK                            x       y       z     vdW  Elec       q    Type
REMARK                         _______ _______ _______ _____ _____    ______ ____
ROOT
ATOM      1  C   UNL     2      -0.106  -0.459   0.099  0.00  0.00    +0.000 A 
ATOM      2  C   UNL     2       0.324  -0.915  -1.133  0.00  0.00    +0.000 A 
ATOM      3  C   UNL     2       1.608  -0.646  -1.561  0.00  0.00    +0.000 A 
ATOM      4  C   UNL     2       2.461   0.080  -0.760  0.00  0.00    +0.000 A 
ATOM      5  C   UNL     2       2.062   0.551   0.478  0.00  0.00    +0.000 A 
ATOM      6  C   UNL     2       0.773   0.268   0.883  0.00  0.00    +0.000 A 
ENDROOT
BRANCH   4   7
ATOM      7  O   UNL     2       3.729   0.331  -1.213  0.00  0.00    +0.000 OA
ATOM      8  H   UNL     2       3.999   0.012  -2.052  0.00  0.00    +0.000 HD
ENDBRANCH   4   7
BRANCH   5   9
ATOM      9  O   UNL     2       2.962   1.274   1.237  0.00  0.00    +0.000 OA
ATOM     10  H   UNL     2       3.826   1.436   0.911  0.00  0.00    +0.000 HD
ENDBRANCH   5   9
BRANCH   1  11
ATOM     11  C   UNL     2      -1.472  -0.746   0.554  0.00  0.00    +0.000 C 
BRANCH  11  12
ATOM     12  O   UNL     2      -1.787  -2.101   0.304  0.00  0.00    +0.000 OA
ATOM     13  H   UNL     2      -1.764  -2.267  -0.651  0.00  0.00    +0.000 HD
ENDBRANCH  11  12
BRANCH  11  14
ATOM     14  C   UNL     2      -2.523   0.068  -0.151  0.00  0.00    +0.000 C 
BRANCH  14  15
ATOM     15  N   UNL     2      -2.336   1.486   0.012  0.00  0.00    +0.000 N 
ATOM     16  H   UNL     2      -3.074   1.986  -0.485  0.00  0.00    +0.000 HD
ATOM     17  H   UNL     2      -1.428   1.755  -0.367  0.00  0.00    +0.000 HD
ATOM     18  H   UNL     2      -2.373   1.722   1.004  0.00  0.00    +0.000 HD
ENDBRANCH  14  15
ENDBRANCH  11  14
ENDBRANCH   1  11
TORSDOF 6
