REMARK  Name = ../data/sim29/CHEMBL2062274.pdb
REMARK  20 active torsions:
REMARK  status: ('A' for Active; 'I' for Inactive)
REMARK    1  A    between atoms: N_1  and  C_2
REMARK    2  A    between atoms: C_2  and  C_3
REMARK    3  A    between atoms: C_3  and  O_4
REMARK    4  A    between atoms: C_3  and  C_5
REMARK    5  A    between atoms: C_8  and  O_9
REMARK    6  A    between atoms: C_10  and  O_11
REMARK    7  A    between atoms: C_14  and  O_15
REMARK    8  A    between atoms: C_14  and  C_16
REMARK    9  A    between atoms: C_16  and  O_17
REMARK   10  A    between atoms: C_16  and  C_18
REMARK   11  A    between atoms: C_18  and  O_19
REMARK   12  A    between atoms: C_18  and  C_20
REMARK   13  A    between atoms: C_20  and  O_22
REMARK   14  A    between atoms: C_24  and  O_25
REMARK   15  A    between atoms: C_24  and  C_26
REMARK   16  A    between atoms: C_26  and  O_27
REMARK   17  A    between atoms: C_26  and  C_28
REMARK   18  A    between atoms: C_28  and  O_29
REMARK   19  A    between atoms: C_28  and  C_30
REMARK   20  A    between atoms: C_30  and  O_32
REMARK                            x       y       z     vdW  Elec       q    Type
REMARK                         _______ _______ _______ _____ _____    ______ ____
ROOT
ATOM      1  C   UNL     1      -0.085  -0.001   0.472  0.00  0.00    +0.000 A 
ATOM      2  C   UNL     1       0.578  -1.135   0.077  0.00  0.00    +0.000 A 
ATOM      3  C   UNL     1       1.950  -1.055  -0.182  0.00  0.00    +0.000 A 
ATOM      4  C   UNL     1       2.598   0.145  -0.036  0.00  0.00    +0.000 A 
ATOM      5  C   UNL     1       1.938   1.288   0.361  0.00  0.00    +0.000 A 
ATOM      6  C   UNL     1       0.584   1.198   0.613  0.00  0.00    +0.000 A 
ENDROOT
BRANCH   4   7
ATOM      7  O   UNL     1       3.971   0.198  -0.301  0.00  0.00    +0.000 OA
ATOM      8  H   UNL     1       4.426  -0.575  -0.571  0.00  0.00    +0.000 HD
ENDBRANCH   4   7
BRANCH   5   9
ATOM      9  O   UNL     1       2.577   2.502   0.512  0.00  0.00    +0.000 OA
ATOM     10  H   UNL     1       3.496   2.572   0.343  0.00  0.00    +0.000 HD
ENDBRANCH   5   9
BRANCH   1  11
ATOM     11  C   UNL     1      -1.539  -0.094   0.744  0.00  0.00    +0.000 C 
BRANCH  11  12
ATOM     12  O   UNL     1      -1.871  -1.199   1.495  0.00  0.00    +0.000 OA
ATOM     13  H   UNL     1      -1.616  -2.003   1.017  0.00  0.00    +0.000 HD
ENDBRANCH  11  12
BRANCH  11  14
ATOM     14  C   UNL     1      -2.241  -0.138  -0.597  0.00  0.00    +0.000 C 
BRANCH  14  15
ATOM     15  N   UNL     1      -3.664  -0.156  -0.370  0.00  0.00    +0.000 N 
ATOM     16  H   UNL     1      -4.151  -0.186  -1.266  0.00  0.00    +0.000 HD
ATOM     17  H   UNL     1      -3.938   0.685   0.138  0.00  0.00    +0.000 HD
ATOM     18  H   UNL     1      -3.910  -0.980   0.178  0.00  0.00    +0.000 HD
ENDBRANCH  14  15
ENDBRANCH  11  14
ENDBRANCH   1  11
TORSDOF 6
REMARK  Name = ../data/sim29/CHEMBL2062274.pdb
REMARK  20 active torsions:
REMARK  status: ('A' for Active; 'I' for Inactive)
REMARK    1  A    between atoms: N_1  and  C_2
REMARK    2  A    between atoms: C_2  and  C_3
REMARK    3  A    between atoms: C_3  and  O_4
REMARK    4  A    between atoms: C_3  and  C_5
REMARK    5  A    between atoms: C_8  and  O_9
REMARK    6  A    between atoms: C_10  and  O_11
REMARK    7  A    between atoms: C_14  and  O_15
REMARK    8  A    between atoms: C_14  and  C_16
REMARK    9  A    between atoms: C_16  and  O_17
REMARK   10  A    between atoms: C_16  and  C_18
REMARK   11  A    between atoms: C_18  and  O_19
REMARK   12  A    between atoms: C_18  and  C_20
REMARK   13  A    between atoms: C_20  and  O_22
REMARK   14  A    between atoms: C_24  and  O_25
REMARK   15  A    between atoms: C_24  and  C_26
REMARK   16  A    between atoms: C_26  and  O_27
REMARK   17  A    between atoms: C_26  and  C_28
REMARK   18  A    between atoms: C_28  and  O_29
REMARK   19  A    between atoms: C_28  and  C_30
REMARK   20  A    between atoms: C_30  and  O_32
REMARK                            x       y       z     vdW  Elec       q    Type
REMARK                         _______ _______ _______ _____ _____    ______ ____
ROOT
ATOM      1  C   UNL     2       0.500  -0.263  -0.967  0.00  0.00    +0.000 C 
ENDROOT
BRANCH   1   3
ATOM      2  O   UNL     2       1.905   1.527  -1.606  0.00  0.00    +0.000 OA
ATOM      3  C   UNL     2       1.452   0.818  -0.683  0.00  0.00    +0.000 C 
BRANCH   3   4
ATOM      4  O   UNL     2       1.863   1.067   0.606  0.00  0.00    +0.000 OA
ATOM      5  H   UNL     2       1.534   0.546   1.312  0.00  0.00    +0.000 HD
ENDBRANCH   3   4
ENDBRANCH   1   3
BRANCH   1   6
ATOM      6  O   UNL     2       0.332  -0.318  -2.379  0.00  0.00    +0.000 OA
ATOM      7  H   UNL     2      -0.044   0.519  -2.693  0.00  0.00    +0.000 HD
ENDBRANCH   1   6
BRANCH   1   8
ATOM      8  C   UNL     2      -0.876  -0.079  -0.374  0.00  0.00    +0.000 C 
BRANCH   8   9
ATOM      9  O   UNL     2      -1.602  -1.218  -0.815  0.00  0.00    +0.000 OA
ATOM     10  H   UNL     2      -1.175  -2.023  -0.482  0.00  0.00    +0.000 HD
ENDBRANCH   8   9
BRANCH   8  11
ATOM     11  C   UNL     2      -0.927   0.027   1.079  0.00  0.00    +0.000 C 
ATOM     12  O   UNL     2      -0.437   0.927   1.776  0.00  0.00    +0.000 OA
BRANCH  11  13
ATOM     13  O   UNL     2      -1.593  -0.974   1.802  0.00  0.00    +0.000 OA
ATOM     14  H   UNL     2      -1.992  -1.691   1.350  0.00  0.00    +0.000 HD
ENDBRANCH  11  13
ENDBRANCH   8  11
ENDBRANCH   1   8
TORSDOF 7
REMARK  Name = ../data/sim29/CHEMBL2062274.pdb
REMARK  20 active torsions:
REMARK  status: ('A' for Active; 'I' for Inactive)
REMARK    1  A    between atoms: N_1  and  C_2
REMARK    2  A    between atoms: C_2  and  C_3
REMARK    3  A    between atoms: C_3  and  O_4
REMARK    4  A    between atoms: C_3  and  C_5
REMARK    5  A    between atoms: C_8  and  O_9
REMARK    6  A    between atoms: C_10  and  O_11
REMARK    7  A    between atoms: C_14  and  O_15
REMARK    8  A    between atoms: C_14  and  C_16
REMARK    9  A    between atoms: C_16  and  O_17
REMARK   10  A    between atoms: C_16  and  C_18
REMARK   11  A    between atoms: C_18  and  O_19
REMARK   12  A    between atoms: C_18  and  C_20
REMARK   13  A    between atoms: C_20  and  O_22
REMARK   14  A    between atoms: C_24  and  O_25
REMARK   15  A    between atoms: C_24  and  C_26
REMARK   16  A    between atoms: C_26  and  O_27
REMARK   17  A    between atoms: C_26  and  C_28
REMARK   18  A    between atoms: C_28  and  O_29
REMARK   19  A    between atoms: C_28  and  C_30
REMARK   20  A    between atoms: C_30  and  O_32
REMARK                            x       y       z     vdW  Elec       q    Type
REMARK                         _______ _______ _______ _____ _____    ______ ____
ROOT
ATOM      1  C   UNL     3       0.631  -0.729   0.456  0.00  0.00    +0.000 C 
ENDROOT
BRANCH   1   3
ATOM      2  O   UNL     3       2.096   0.269  -1.147  0.00  0.00    +0.000 OA
ATOM      3  C   UNL     3       1.634   0.274   0.023  0.00  0.00    +0.000 C 
BRANCH   3   4
ATOM      4  O   UNL     3       2.072   1.235   0.922  0.00  0.00    +0.000 OA
ATOM      5  H   UNL     3       1.734   1.248   1.796  0.00  0.00    +0.000 HD
ENDBRANCH   3   4
ENDBRANCH   1   3
BRANCH   1   6
ATOM      6  O   UNL     3       0.281  -0.522   1.767  0.00  0.00    +0.000 OA
ATOM      7  H   UNL     3      -0.105   0.363   1.863  0.00  0.00    +0.000 HD
ENDBRANCH   1   6
BRANCH   1   8
ATOM      8  C   UNL     3      -0.572  -0.682  -0.487  0.00  0.00    +0.000 C 
BRANCH   8   9
ATOM      9  O   UNL     3      -0.064  -0.907  -1.766  0.00  0.00    +0.000 OA
ATOM     10  H   UNL     3       0.589  -0.222  -1.980  0.00  0.00    +0.000 HD
ENDBRANCH   8   9
BRANCH   8  11
ATOM     11  C   UNL     3      -1.300   0.589  -0.388  0.00  0.00    +0.000 C 
ATOM     12  O   UNL     3      -1.400   1.323  -1.397  0.00  0.00    +0.000 OA
BRANCH  11  13
ATOM     13  O   UNL     3      -1.884   1.008   0.791  0.00  0.00    +0.000 OA
ATOM     14  H   UNL     3      -1.822   0.475   1.559  0.00  0.00    +0.000 HD
ENDBRANCH  11  13
ENDBRANCH   8  11
ENDBRANCH   1   8
TORSDOF 7
