REMARK  Name = ../data/sim29/CHEMBL1462.pdb
REMARK  4 active torsions:
REMARK  status: ('A' for Active; 'I' for Inactive)
REMARK    1  A    between atoms: N1_1  and  C1_2
REMARK    2  A    between atoms: C4_5  and  C5_6
REMARK    3  A    between atoms: C5_6  and  O2_8
REMARK    4  A    between atoms: C7_10  and  O3_11
REMARK                            x       y       z     vdW  Elec       q    Type
REMARK                         _______ _______ _______ _____ _____    ______ ____
ROOT
ATOM      1  C1  UNL     1      -1.475   0.298   0.266  0.00  0.00    +0.000 A 
ATOM      2  C2  UNL     1      -0.560   1.355   0.251  0.00  0.00    +0.000 A 
ATOM      3  C3  UNL     1       0.778   1.162   0.039  0.00  0.00    +0.000 A 
ATOM      4  C4  UNL     1       1.234  -0.123  -0.167  0.00  0.00    +0.000 A 
ATOM      5  C6  UNL     1       0.353  -1.170  -0.156  0.00  0.00    +0.000 A 
ATOM      6  C7  UNL     1      -1.017  -0.977   0.061  0.00  0.00    +0.000 A 
ENDROOT
BRANCH   1   7
ATOM      7  N1  UNL     1      -2.845   0.547   0.489  0.00  0.00    +0.000 N 
ATOM      8  H   UNL     1      -3.161   1.468   0.635  0.00  0.00    +0.000 HD
ATOM      9  H   UNL     1      -3.486  -0.200   0.499  0.00  0.00    +0.000 HD
ENDBRANCH   1   7
BRANCH   4  10
ATOM     10  C5  UNL     1       2.660  -0.349  -0.396  0.00  0.00    +0.000 C 
ATOM     11  O1  UNL     1       3.075  -1.524  -0.584  0.00  0.00    +0.000 OA
BRANCH  10  12
ATOM     12  O2  UNL     1       3.587   0.672  -0.416  0.00  0.00    +0.000 OA
ATOM     13  H   UNL     1       3.312   1.557  -0.280  0.00  0.00    +0.000 HD
ENDBRANCH  10  12
ENDBRANCH   4  10
BRANCH   6  14
ATOM     14  O3  UNL     1      -1.866  -2.078   0.061  0.00  0.00    +0.000 OA
ATOM     15  H   UNL     1      -2.784  -1.961   0.205  0.00  0.00    +0.000 HD
ENDBRANCH   6  14
TORSDOF 4
