REMARK  Name = ../data/sim29/CHEMBL288787.pdb
REMARK  5 active torsions:
REMARK  status: ('A' for Active; 'I' for Inactive)
REMARK    1  A    between atoms: N_1  and  C_2
REMARK    2  A    between atoms: C_2  and  O_3
REMARK    3  A    between atoms: C_2  and  C_4
REMARK    4  A    between atoms: C_7  and  O_8
REMARK    5  A    between atoms: C_9  and  O_10
REMARK                            x       y       z     vdW  Elec       q    Type
REMARK                         _______ _______ _______ _____ _____    ______ ____
ROOT
ATOM      1  C   UNL     1       0.560   0.173  -0.077  0.00  0.00    +0.000 A 
ATOM      2  C   UNL     1       0.273  -1.173  -0.002  0.00  0.00    +0.000 A 
ATOM      3  C   UNL     1      -1.042  -1.620   0.116  0.00  0.00    +0.000 A 
ATOM      4  C   UNL     1      -2.100  -0.736   0.161  0.00  0.00    +0.000 A 
ATOM      5  C   UNL     1      -1.801   0.608   0.084  0.00  0.00    +0.000 A 
ATOM      6  C   UNL     1      -0.501   1.053  -0.032  0.00  0.00    +0.000 A 
ENDROOT
BRANCH   4   7
ATOM      7  O   UNL     1      -3.418  -1.188   0.279  0.00  0.00    +0.000 OA
ATOM      8  H   UNL     1      -3.595  -2.107   0.330  0.00  0.00    +0.000 HD
ENDBRANCH   4   7
BRANCH   5   9
ATOM      9  O   UNL     1      -2.844   1.516   0.126  0.00  0.00    +0.000 OA
ATOM     10  H   UNL     1      -3.727   1.212   0.205  0.00  0.00    +0.000 HD
ENDBRANCH   5   9
BRANCH   1  11
ATOM     11  C   UNL     1       1.971   0.649  -0.204  0.00  0.00    +0.000 C 
BRANCH  11  12
ATOM     12  N   UNL     1       2.854  -0.013   0.678  0.00  0.00    +0.000 N 
ATOM     13  H   UNL     1       3.799   0.350   0.549  0.00  0.00    +0.000 HD
ATOM     14  H   UNL     1       2.844  -1.014   0.481  0.00  0.00    +0.000 HD
ATOM     15  H   UNL     1       2.557   0.147   1.640  0.00  0.00    +0.000 HD
ENDBRANCH  11  12
BRANCH  11  16
ATOM     16  O   UNL     1       2.430   0.456  -1.518  0.00  0.00    +0.000 OA
ATOM     17  H   UNL     1       2.429  -0.492  -1.725  0.00  0.00    +0.000 HD
ENDBRANCH  11  16
ENDBRANCH   1  11
TORSDOF 5
