REMARK  Name = ../data/sim29/CHEMBL1437.pdb
REMARK  6 active torsions:
REMARK  status: ('A' for Active; 'I' for Inactive)
REMARK    1  A    between atoms: N_1  and  C_2
REMARK    2  A    between atoms: C_2  and  C_3
REMARK    3  A    between atoms: C_3  and  O_4
REMARK    4  A    between atoms: C_3  and  C_5
REMARK    5  A    between atoms: C_8  and  O_9
REMARK    6  A    between atoms: C_10  and  O_11
REMARK                            x       y       z     vdW  Elec       q    Type
REMARK                         _______ _______ _______ _____ _____    ______ ____
ROOT
ATOM      1  C   UNL     1      -0.133  -0.529   0.052  0.00  0.00    +0.000 A 
ATOM      2  C   UNL     1       0.395  -0.608  -1.219  0.00  0.00    +0.000 A 
ATOM      3  C   UNL     1       1.624  -0.071  -1.532  0.00  0.00    +0.000 A 
ATOM      4  C   UNL     1       2.347   0.565  -0.540  0.00  0.00    +0.000 A 
ATOM      5  C   UNL     1       1.859   0.667   0.740  0.00  0.00    +0.000 A 
ATOM      6  C   UNL     1       0.613   0.111   1.014  0.00  0.00    +0.000 A 
ENDROOT
BRANCH   4   7
ATOM      7  O   UNL     1       3.578   1.114  -0.809  0.00  0.00    +0.000 OA
ATOM      8  H   UNL     1       3.936   1.060  -1.673  0.00  0.00    +0.000 HD
ENDBRANCH   4   7
BRANCH   5   9
ATOM      9  O   UNL     1       2.586   1.304   1.729  0.00  0.00    +0.000 OA
ATOM     10  H   UNL     1       3.424   1.674   1.530  0.00  0.00    +0.000 HD
ENDBRANCH   5   9
BRANCH   1  11
ATOM     11  C   UNL     1      -1.460  -1.121   0.344  0.00  0.00    +0.000 C 
BRANCH  11  12
ATOM     12  O   UNL     1      -1.379  -1.830   1.541  0.00  0.00    +0.000 OA
ATOM     13  H   UNL     1      -1.141  -1.224   2.260  0.00  0.00    +0.000 HD
ENDBRANCH  11  12
BRANCH  11  14
ATOM     14  C   UNL     1      -2.530  -0.072   0.509  0.00  0.00    +0.000 C 
BRANCH  14  15
ATOM     15  N   UNL     1      -2.708   0.734  -0.674  0.00  0.00    +0.000 N 
ATOM     16  H   UNL     1      -3.440   1.424  -0.508  0.00  0.00    +0.000 HD
ATOM     17  H   UNL     1      -2.975   0.136  -1.456  0.00  0.00    +0.000 HD
ATOM     18  H   UNL     1      -1.834   1.212  -0.895  0.00  0.00    +0.000 HD
ENDBRANCH  14  15
ENDBRANCH  11  14
ENDBRANCH   1  11
TORSDOF 6
