REMARK  Name = ../data/sim29/CHEMBL2074780.pdb
REMARK  6 active torsions:
REMARK  status: ('A' for Active; 'I' for Inactive)
REMARK    1  A    between atoms: C1_2  and  O2_3
REMARK    2  A    between atoms: C1_2  and  C2_4
REMARK    3  A    between atoms: C2_4  and  O3_5
REMARK    4  A    between atoms: C2_4  and  C3_6
REMARK    5  A    between atoms: C6_9  and  O4_10
REMARK    6  A    between atoms: C7_11  and  O5_12
REMARK                            x       y       z     vdW  Elec       q    Type
REMARK                         _______ _______ _______ _____ _____    ______ ____
ROOT
ATOM      1  C3  UNL     1      -0.428  -0.201  -0.281  0.00  0.00    +0.000 A 
ATOM      2  C4  UNL     1      -0.112  -1.108   0.719  0.00  0.00    +0.000 A 
ATOM      3  C5  UNL     1       1.183  -1.239   1.153  0.00  0.00    +0.000 A 
ATOM      4  C6  UNL     1       2.154  -0.459   0.580  0.00  0.00    +0.000 A 
ATOM      5  C7  UNL     1       1.862   0.453  -0.420  0.00  0.00    +0.000 A 
ATOM      6  C8  UNL     1       0.556   0.580  -0.852  0.00  0.00    +0.000 A 
ENDROOT
BRANCH   4   7
ATOM      7  O4  UNL     1       3.468  -0.593   1.021  0.00  0.00    +0.000 OA
ATOM      8  H   UNL     1       3.675  -1.208   1.697  0.00  0.00    +0.000 HD
ENDBRANCH   4   7
BRANCH   5   9
ATOM      9  O5  UNL     1       2.870   1.220  -0.971  0.00  0.00    +0.000 OA
ATOM     10  H   UNL     1       3.751   1.123  -0.668  0.00  0.00    +0.000 HD
ENDBRANCH   5   9
BRANCH   1  11
ATOM     11  C2  UNL     1      -1.848  -0.109  -0.704  0.00  0.00    +0.000 C 
BRANCH  11  13
ATOM     12  O1  UNL     1      -3.558   0.023   0.996  0.00  0.00    +0.000 OA
ATOM     13  C1  UNL     1      -2.628   0.562   0.345  0.00  0.00    +0.000 C 
BRANCH  13  14
ATOM     14  O2  UNL     1      -2.329   1.887   0.652  0.00  0.00    +0.000 OA
ATOM     15  H   UNL     1      -1.643   2.331   0.193  0.00  0.00    +0.000 HD
ENDBRANCH  13  14
ENDBRANCH  11  13
BRANCH  11  16
ATOM     16  O3  UNL     1      -2.314  -1.416  -0.843  0.00  0.00    +0.000 OA
ATOM     17  H   UNL     1      -2.216  -1.886  -0.000  0.00  0.00    +0.000 HD
ENDBRANCH  11  16
ENDBRANCH   1  11
TORSDOF 6
