REMARK  Name = ../data/sim29/CHEMBL1356607.pdb
REMARK  13 active torsions:
REMARK  status: ('A' for Active; 'I' for Inactive)
REMARK    1  A    between atoms: N_1  and  C_2
REMARK    2  A    between atoms: C_2  and  C_3
REMARK    3  A    between atoms: C_3  and  O_4
REMARK    4  A    between atoms: C_3  and  C_5
REMARK    5  A    between atoms: C_8  and  O_9
REMARK    6  A    between atoms: C_10  and  O_11
REMARK    7  A    between atoms: C_14  and  O_15
REMARK    8  A    between atoms: C_14  and  C_16
REMARK    9  A    between atoms: C_16  and  O_17
REMARK   10  A    between atoms: C_16  and  C_18
REMARK   11  A    between atoms: C_18  and  O_19
REMARK   12  A    between atoms: C_18  and  C_20
REMARK   13  A    between atoms: C_20  and  O_22
REMARK                            x       y       z     vdW  Elec       q    Type
REMARK                         _______ _______ _______ _____ _____    ______ ____
ROOT
ATOM      1  C   UNL     1      -0.188   0.383  -0.264  0.00  0.00    +0.000 A 
ATOM      2  C   UNL     1       0.192  -0.871  -0.706  0.00  0.00    +0.000 A 
ATOM      3  C   UNL     1       1.503  -1.325  -0.579  0.00  0.00    +0.000 A 
ATOM      4  C   UNL     1       2.458  -0.521  -0.003  0.00  0.00    +0.000 A 
ATOM      5  C   UNL     1       2.099   0.729   0.442  0.00  0.00    +0.000 A 
ATOM      6  C   UNL     1       0.796   1.161   0.308  0.00  0.00    +0.000 A 
ENDROOT
BRANCH   4   7
ATOM      7  O   UNL     1       3.773  -0.925   0.147  0.00  0.00    +0.000 OA
ATOM      8  H   UNL     1       4.039  -1.773  -0.149  0.00  0.00    +0.000 HD
ENDBRANCH   4   7
BRANCH   5   9
ATOM      9  O   UNL     1       3.070   1.552   1.031  0.00  0.00    +0.000 OA
ATOM     10  H   UNL     1       3.952   1.248   1.117  0.00  0.00    +0.000 HD
ENDBRANCH   5   9
BRANCH   1  11
ATOM     11  C   UNL     1      -1.588   0.852  -0.407  0.00  0.00    +0.000 C 
BRANCH  11  12
ATOM     12  O   UNL     1      -2.130   0.592  -1.644  0.00  0.00    +0.000 OA
ATOM     13  H   UNL     1      -2.187  -0.367  -1.777  0.00  0.00    +0.000 HD
ENDBRANCH  11  12
BRANCH  11  14
ATOM     14  C   UNL     1      -2.488   0.253   0.655  0.00  0.00    +0.000 C 
BRANCH  14  15
ATOM     15  N   UNL     1      -2.629  -1.166   0.510  0.00  0.00    +0.000 N 
ATOM     16  H   UNL     1      -3.241  -1.524   1.244  0.00  0.00    +0.000 HD
ATOM     17  H   UNL     1      -1.713  -1.608   0.586  0.00  0.00    +0.000 HD
ATOM     18  H   UNL     1      -3.034  -1.376  -0.402  0.00  0.00    +0.000 HD
ENDBRANCH  14  15
ENDBRANCH  11  14
ENDBRANCH   1  11
TORSDOF 6
REMARK  Name = ../data/sim29/CHEMBL1356607.pdb
REMARK  13 active torsions:
REMARK  status: ('A' for Active; 'I' for Inactive)
REMARK    1  A    between atoms: N_1  and  C_2
REMARK    2  A    between atoms: C_2  and  C_3
REMARK    3  A    between atoms: C_3  and  O_4
REMARK    4  A    between atoms: C_3  and  C_5
REMARK    5  A    between atoms: C_8  and  O_9
REMARK    6  A    between atoms: C_10  and  O_11
REMARK    7  A    between atoms: C_14  and  O_15
REMARK    8  A    between atoms: C_14  and  C_16
REMARK    9  A    between atoms: C_16  and  O_17
REMARK   10  A    between atoms: C_16  and  C_18
REMARK   11  A    between atoms: C_18  and  O_19
REMARK   12  A    between atoms: C_18  and  C_20
REMARK   13  A    between atoms: C_20  and  O_22
REMARK                            x       y       z     vdW  Elec       q    Type
REMARK                         _______ _______ _______ _____ _____    ______ ____
ROOT
ATOM      1  C   UNL     2      -0.487  -0.953  -0.211  0.00  0.00    +0.000 C 
ENDROOT
BRANCH   1   3
ATOM      2  O   UNL     2      -2.430   0.230  -0.780  0.00  0.00    +0.000 OA
ATOM      3  C   UNL     2      -1.179   0.170  -0.854  0.00  0.00    +0.000 C 
BRANCH   3   4
ATOM      4  O   UNL     2      -0.536   1.177  -1.542  0.00  0.00    +0.000 OA
ATOM      5  H   UNL     2       0.398   1.169  -1.620  0.00  0.00    +0.000 HD
ENDBRANCH   3   4
ENDBRANCH   1   3
BRANCH   1   6
ATOM      6  O   UNL     2      -1.393  -1.801   0.401  0.00  0.00    +0.000 OA
ATOM      7  H   UNL     2      -1.886  -1.313   1.079  0.00  0.00    +0.000 HD
ENDBRANCH   1   6
BRANCH   1   8
ATOM      8  C   UNL     2       0.519  -0.398   0.792  0.00  0.00    +0.000 C 
BRANCH   8   9
ATOM      9  O   UNL     2      -0.123   0.310   1.780  0.00  0.00    +0.000 OA
ATOM     10  H   UNL     2      -0.614   1.047   1.383  0.00  0.00    +0.000 HD
ENDBRANCH   8   9
BRANCH   8  11
ATOM     11  C   UNL     2       1.465   0.481   0.056  0.00  0.00    +0.000 C 
ATOM     12  O   UNL     2       2.162   0.042  -0.893  0.00  0.00    +0.000 OA
BRANCH  11  13
ATOM     13  O   UNL     2       1.633   1.824   0.369  0.00  0.00    +0.000 OA
ATOM     14  H   UNL     2       1.140   2.207   1.067  0.00  0.00    +0.000 HD
ENDBRANCH  11  13
ENDBRANCH   8  11
ENDBRANCH   1   8
TORSDOF 7
