REMARK  Name = ../data/sim29/CHEMBL1320902.pdb
REMARK  7 active torsions:
REMARK  status: ('A' for Active; 'I' for Inactive)
REMARK    1  A    between atoms: C_1  and  C_2
REMARK    2  A    between atoms: C_2  and  N_3
REMARK    3  A    between atoms: C_2  and  C_4
REMARK    4  A    between atoms: C_4  and  O_5
REMARK    5  A    between atoms: C_4  and  C_6
REMARK    6  A    between atoms: C_9  and  O_10
REMARK    7  A    between atoms: C_11  and  O_12
REMARK                            x       y       z     vdW  Elec       q    Type
REMARK                         _______ _______ _______ _____ _____    ______ ____
ROOT
ATOM      1  C   UNL     1       0.300   0.034  -0.579  0.00  0.00    +0.000 A 
ATOM      2  C   UNL     1       0.779  -1.191  -0.172  0.00  0.00    +0.000 A 
ATOM      3  C   UNL     1       2.005  -1.318   0.478  0.00  0.00    +0.000 A 
ATOM      4  C   UNL     1       2.768  -0.215   0.728  0.00  0.00    +0.000 A 
ATOM      5  C   UNL     1       2.316   1.014   0.334  0.00  0.00    +0.000 A 
ATOM      6  C   UNL     1       1.089   1.130  -0.314  0.00  0.00    +0.000 A 
ENDROOT
BRANCH   4   7
ATOM      7  O   UNL     1       3.998  -0.280   1.372  0.00  0.00    +0.000 OA
ATOM      8  H   UNL     1       4.336  -1.107   1.655  0.00  0.00    +0.000 HD
ENDBRANCH   4   7
BRANCH   5   9
ATOM      9  O   UNL     1       3.074   2.142   0.579  0.00  0.00    +0.000 OA
ATOM     10  H   UNL     1       3.900   2.066   1.015  0.00  0.00    +0.000 HD
ENDBRANCH   5   9
BRANCH   1  11
ATOM     11  C   UNL     1      -0.999   0.202  -1.272  0.00  0.00    +0.000 C 
BRANCH  11  13
ATOM     12  C   UNL     1      -2.414  -1.104   0.333  0.00  0.00    +0.000 C 
ATOM     13  C   UNL     1      -2.165   0.222  -0.310  0.00  0.00    +0.000 C 
BRANCH  13  14
ATOM     14  N   UNL     1      -1.897   1.238   0.670  0.00  0.00    +0.000 N 
ATOM     15  H   UNL     1      -1.039   1.009   1.171  0.00  0.00    +0.000 HD
ATOM     16  H   UNL     1      -2.673   1.287   1.330  0.00  0.00    +0.000 HD
ATOM     17  H   UNL     1      -1.789   2.139   0.205  0.00  0.00    +0.000 HD
ENDBRANCH  13  14
ENDBRANCH  11  13
BRANCH  11  18
ATOM     18  O   UNL     1      -1.161  -0.762  -2.274  0.00  0.00    +0.000 OA
ATOM     19  H   UNL     1      -1.176  -1.645  -1.873  0.00  0.00    +0.000 HD
ENDBRANCH  11  18
ENDBRANCH   1  11
TORSDOF 6
