REMARK  Name = ../data/sim29/CHEMBL1545498.pdb
REMARK  5 active torsions:
REMARK  status: ('A' for Active; 'I' for Inactive)
REMARK    1  A    between atoms: C1_1  and  C2_2
REMARK    2  A    between atoms: C2_2  and  C3_3
REMARK    3  A    between atoms: C2_2  and  C4_4
REMARK    4  A    between atoms: C7_7  and  O1_8
REMARK    5  A    between atoms: C8_9  and  N1_10
REMARK                            x       y       z     vdW  Elec       q    Type
REMARK                         _______ _______ _______ _____ _____    ______ ____
ROOT
ATOM      1  C4  UNL     1      -0.336   0.466   0.092  0.00  0.00    +0.000 A 
ATOM      2  C5  UNL     1       0.328   1.615  -0.284  0.00  0.00    +0.000 A 
ATOM      3  C6  UNL     1       1.618   1.625  -0.772  0.00  0.00    +0.000 A 
ATOM      4  C7  UNL     1       2.275   0.406  -0.889  0.00  0.00    +0.000 A 
ATOM      5  C8  UNL     1       1.616  -0.748  -0.514  0.00  0.00    +0.000 A 
ATOM      6  C9  UNL     1       0.327  -0.764  -0.025  0.00  0.00    +0.000 A 
ENDROOT
BRANCH   1   8
ATOM      7  C1  UNL     1      -1.851   0.077   2.016  0.00  0.00    +0.000 C 
ATOM      8  C2  UNL     1      -1.704   0.575   0.597  0.00  0.00    +0.000 C 
ATOM      9  C3  UNL     1      -2.621  -0.152  -0.355  0.00  0.00    +0.000 C 
ENDBRANCH   1   8
BRANCH   5  10
ATOM     10  N1  UNL     1       2.286  -1.998  -0.632  0.00  0.00    +0.000 N 
ATOM     11  H   UNL     1       3.208  -2.032  -0.977  0.00  0.00    +0.000 HD
ATOM     12  H   UNL     1       1.828  -2.829  -0.369  0.00  0.00    +0.000 HD
ENDBRANCH   5  10
BRANCH   4  13
ATOM     13  O1  UNL     1       3.558   0.321  -1.364  0.00  0.00    +0.000 OA
ATOM     14  H   UNL     1       4.015   1.098  -1.621  0.00  0.00    +0.000 HD
ENDBRANCH   4  13
TORSDOF 3
