REMARK  Name = ../data/sim29/CHEMBL164989.pdb
REMARK  3 active torsions:
REMARK  status: ('A' for Active; 'I' for Inactive)
REMARK    1  A    between atoms: N_1  and  C_2
REMARK    2  A    between atoms: C_5  and  N_6
REMARK    3  A    between atoms: C_10  and  O_11
REMARK                            x       y       z     vdW  Elec       q    Type
REMARK                         _______ _______ _______ _____ _____    ______ ____
ROOT
ATOM      1  C   UNL     1      -1.183  -0.461  -0.206  0.00  0.00    +0.000 A 
ATOM      2  C   UNL     1      -0.190  -1.268  -0.716  0.00  0.00    +0.000 A 
ATOM      3  C   UNL     1       1.159  -0.929  -0.592  0.00  0.00    +0.000 A 
ATOM      4  C   UNL     1       1.520   0.235   0.053  0.00  0.00    +0.000 A 
ATOM      5  C   UNL     1       0.514   1.029   0.557  0.00  0.00    +0.000 A 
ATOM      6  C   UNL     1      -0.832   0.705   0.441  0.00  0.00    +0.000 A 
ENDROOT
BRANCH   1   7
ATOM      7  N   UNL     1      -2.554  -0.805  -0.332  0.00  0.00    +0.000 N 
ATOM      8  H   UNL     1      -2.813  -1.636  -0.793  0.00  0.00    +0.000 HD
ATOM      9  H   UNL     1      -3.246  -0.213   0.041  0.00  0.00    +0.000 HD
ENDBRANCH   1   7
BRANCH   4  10
ATOM     10  N   UNL     1       2.896   0.613   0.199  0.00  0.00    +0.000 N 
ATOM     11  O   UNL     1       3.823  -0.077  -0.242  0.00  0.00    +0.000 OA
ATOM     12  O   UNL     1       3.185   1.789   0.854  0.00  0.00    +0.000 OA
ENDBRANCH   4  10
BRANCH   6  13
ATOM     13  O   UNL     1      -1.795   1.533   0.962  0.00  0.00    +0.000 OA
ATOM     14  H   UNL     1      -2.701   1.308   0.880  0.00  0.00    +0.000 HD
ENDBRANCH   6  13
TORSDOF 3
