REMARK  Name = ../data/sim29/CHEMBL3273169.pdb
REMARK  6 active torsions:
REMARK  status: ('A' for Active; 'I' for Inactive)
REMARK    1  A    between atoms: N_2  and  C_3
REMARK    2  A    between atoms: C_3  and  C_4
REMARK    3  A    between atoms: C_4  and  O_5
REMARK    4  A    between atoms: C_4  and  C_6
REMARK    5  A    between atoms: C_9  and  O_10
REMARK    6  A    between atoms: C_11  and  O_12
REMARK                            x       y       z     vdW  Elec       q    Type
REMARK                         _______ _______ _______ _____ _____    ______ ____
ROOT
ATOM      1 BR   UNL     1       0.760   0.000   0.000  0.00  0.00    +0.000 Br
ATOM      2  H   UNL     1       2.150   0.000   0.000  0.00  0.00    +0.000 HD
ENDROOT
TORSDOF 0
REMARK  Name = ../data/sim29/CHEMBL3273169.pdb
REMARK  6 active torsions:
REMARK  status: ('A' for Active; 'I' for Inactive)
REMARK    1  A    between atoms: N_2  and  C_3
REMARK    2  A    between atoms: C_3  and  C_4
REMARK    3  A    between atoms: C_4  and  O_5
REMARK    4  A    between atoms: C_4  and  C_6
REMARK    5  A    between atoms: C_9  and  O_10
REMARK    6  A    between atoms: C_11  and  O_12
REMARK                            x       y       z     vdW  Elec       q    Type
REMARK                         _______ _______ _______ _____ _____    ______ ____
ROOT
ATOM      1  C   UNL     2      -0.144  -0.500   0.171  0.00  0.00    +0.000 A 
ATOM      2  C   UNL     2       0.067   0.246  -0.968  0.00  0.00    +0.000 A 
ATOM      3  C   UNL     2       1.304   0.747  -1.285  0.00  0.00    +0.000 A 
ATOM      4  C   UNL     2       2.365   0.481  -0.411  0.00  0.00    +0.000 A 
ATOM      5  C   UNL     2       2.180  -0.254   0.724  0.00  0.00    +0.000 A 
ATOM      6  C   UNL     2       0.905  -0.747   1.010  0.00  0.00    +0.000 A 
ENDROOT
BRANCH   4   7
ATOM      7  O   UNL     2       3.595   0.991  -0.744  0.00  0.00    +0.000 OA
ATOM      8  H   UNL     2       3.697   1.493  -1.529  0.00  0.00    +0.000 HD
ENDBRANCH   4   7
BRANCH   5   9
ATOM      9  O   UNL     2       3.238  -0.508   1.575  0.00  0.00    +0.000 OA
ATOM     10  H   UNL     2       4.090  -0.174   1.376  0.00  0.00    +0.000 HD
ENDBRANCH   5   9
BRANCH   1  11
ATOM     11  C   UNL     2      -1.479  -1.042   0.515  0.00  0.00    +0.000 C 
BRANCH  11  12
ATOM     12  O   UNL     2      -1.740  -0.812   1.886  0.00  0.00    +0.000 OA
ATOM     13  H   UNL     2      -1.751   0.143   2.057  0.00  0.00    +0.000 HD
ENDBRANCH  11  12
BRANCH  11  14
ATOM     14  C   UNL     2      -2.590  -0.372  -0.247  0.00  0.00    +0.000 C 
BRANCH  14  15
ATOM     15  N   UNL     2      -2.552   1.040   0.081  0.00  0.00    +0.000 N 
ATOM     16  H   UNL     2      -3.295   1.526  -0.421  0.00  0.00    +0.000 HD
ATOM     17  H   UNL     2      -1.649   1.428  -0.191  0.00  0.00    +0.000 HD
ATOM     18  H   UNL     2      -2.685   1.160   1.085  0.00  0.00    +0.000 HD
ENDBRANCH  14  15
ENDBRANCH  11  14
ENDBRANCH   1  11
TORSDOF 6
