REMARK  Name = ../data/sim29/CHEMBL18824.pdb
REMARK  6 active torsions:
REMARK  status: ('A' for Active; 'I' for Inactive)
REMARK    1  A    between atoms: N_1  and  C_2
REMARK    2  A    between atoms: C_2  and  C_3
REMARK    3  A    between atoms: C_3  and  O_4
REMARK    4  A    between atoms: C_3  and  C_5
REMARK    5  A    between atoms: C_8  and  O_9
REMARK    6  A    between atoms: C_10  and  O_11
REMARK                            x       y       z     vdW  Elec       q    Type
REMARK                         _______ _______ _______ _____ _____    ______ ____
ROOT
ATOM      1  C   UNL     1       0.006  -0.145   0.318  0.00  0.00    +0.000 A 
ATOM      2  C   UNL     1       0.536  -1.266  -0.275  0.00  0.00    +0.000 A 
ATOM      3  C   UNL     1       1.873  -1.307  -0.602  0.00  0.00    +0.000 A 
ATOM      4  C   UNL     1       2.715  -0.223  -0.344  0.00  0.00    +0.000 A 
ATOM      5  C   UNL     1       2.186   0.897   0.248  0.00  0.00    +0.000 A 
ATOM      6  C   UNL     1       0.825   0.933   0.579  0.00  0.00    +0.000 A 
ENDROOT
BRANCH   4   7
ATOM      7  O   UNL     1       4.063  -0.287  -0.683  0.00  0.00    +0.000 OA
ATOM      8  H   UNL     1       4.408  -1.059  -1.087  0.00  0.00    +0.000 HD
ENDBRANCH   4   7
BRANCH   5   9
ATOM      9  O   UNL     1       3.007   1.983   0.512  0.00  0.00    +0.000 OA
ATOM     10  H   UNL     1       3.916   1.949   0.287  0.00  0.00    +0.000 HD
ENDBRANCH   5   9
BRANCH   1  11
ATOM     11  C   UNL     1      -1.426  -0.045   0.692  0.00  0.00    +0.000 C 
BRANCH  11  12
ATOM     12  O   UNL     1      -1.861  -1.221   1.329  0.00  0.00    +0.000 OA
ATOM     13  H   UNL     1      -1.789  -1.968   0.714  0.00  0.00    +0.000 HD
ENDBRANCH  11  12
BRANCH  11  14
ATOM     14  C   UNL     1      -2.303   0.306  -0.481  0.00  0.00    +0.000 C 
BRANCH  14  15
ATOM     15  N   UNL     1      -3.650   0.501   0.017  0.00  0.00    +0.000 N 
ATOM     16  H   UNL     1      -4.268   0.741  -0.758  0.00  0.00    +0.000 HD
ATOM     17  H   UNL     1      -3.653   1.258   0.701  0.00  0.00    +0.000 HD
ATOM     18  H   UNL     1      -3.977  -0.358   0.459  0.00  0.00    +0.000 HD
ENDBRANCH  14  15
ENDBRANCH  11  14
ENDBRANCH   1  11
TORSDOF 6
