REMARK  Name = ../data/sim29/CHEMBL1434513.pdb
REMARK  13 active torsions:
REMARK  status: ('A' for Active; 'I' for Inactive)
REMARK    1  A    between atoms: N_1  and  C_2
REMARK    2  A    between atoms: C_2  and  C_3
REMARK    3  A    between atoms: C_3  and  O_4
REMARK    4  A    between atoms: C_3  and  C_5
REMARK    5  A    between atoms: C_8  and  O_9
REMARK    6  A    between atoms: C_10  and  O_11
REMARK    7  A    between atoms: C_15  and  O_16
REMARK    8  A    between atoms: C_15  and  C_17
REMARK    9  A    between atoms: C_17  and  O_18
REMARK   10  A    between atoms: C_17  and  C_19
REMARK   11  A    between atoms: C_19  and  O_20
REMARK   12  A    between atoms: C_19  and  C_21
REMARK   13  A    between atoms: C_21  and  O_23
REMARK                            x       y       z     vdW  Elec       q    Type
REMARK                         _______ _______ _______ _____ _____    ______ ____
ROOT
ATOM      1  C   UNL     1      -0.036   0.021   0.146  0.00  0.00    +0.000 A 
ATOM      2  C   UNL     1       0.321  -1.303   0.288  0.00  0.00    +0.000 A 
ATOM      3  C   UNL     1       1.653  -1.672   0.281  0.00  0.00    +0.000 A 
ATOM      4  C   UNL     1       2.678  -0.740   0.133  0.00  0.00    +0.000 A 
ATOM      5  C   UNL     1       2.318   0.574  -0.008  0.00  0.00    +0.000 A 
ATOM      6  C   UNL     1       0.990   0.932   0.000  0.00  0.00    +0.000 A 
ENDROOT
BRANCH   4   7
ATOM      7  O   UNL     1       4.003  -1.153   0.131  0.00  0.00    +0.000 OA
ATOM      8  H   UNL     1       4.211  -2.061   0.230  0.00  0.00    +0.000 HD
ENDBRANCH   4   7
BRANCH   5   9
ATOM      9  O   UNL     1       3.317   1.529  -0.158  0.00  0.00    +0.000 OA
ATOM     10  H   UNL     1       4.217   1.269  -0.161  0.00  0.00    +0.000 HD
ENDBRANCH   5   9
BRANCH   1  11
ATOM     11  C   UNL     1      -1.404   0.533   0.137  0.00  0.00    +0.000 C 
BRANCH  11  12
ATOM     12  O   UNL     1      -1.539   1.449  -0.904  0.00  0.00    +0.000 OA
ATOM     13  H   UNL     1      -1.392   1.000  -1.751  0.00  0.00    +0.000 HD
ENDBRANCH  11  12
BRANCH  11  14
ATOM     14  C   UNL     1      -2.465  -0.524   0.077  0.00  0.00    +0.000 C 
BRANCH  14  15
ATOM     15  N   UNL     1      -3.755   0.152   0.181  0.00  0.00    +0.000 N 
ATOM     16  H   UNL     1      -4.505  -0.539   0.144  0.00  0.00    +0.000 HD
ATOM     17  H   UNL     1      -3.858   0.808  -0.593  0.00  0.00    +0.000 HD
ATOM     18  H   UNL     1      -3.803   0.659   1.065  0.00  0.00    +0.000 HD
ENDBRANCH  14  15
ENDBRANCH  11  14
ENDBRANCH   1  11
TORSDOF 6
REMARK  Name = ../data/sim29/CHEMBL1434513.pdb
REMARK  13 active torsions:
REMARK  status: ('A' for Active; 'I' for Inactive)
REMARK    1  A    between atoms: N_1  and  C_2
REMARK    2  A    between atoms: C_2  and  C_3
REMARK    3  A    between atoms: C_3  and  O_4
REMARK    4  A    between atoms: C_3  and  C_5
REMARK    5  A    between atoms: C_8  and  O_9
REMARK    6  A    between atoms: C_10  and  O_11
REMARK    7  A    between atoms: C_15  and  O_16
REMARK    8  A    between atoms: C_15  and  C_17
REMARK    9  A    between atoms: C_17  and  O_18
REMARK   10  A    between atoms: C_17  and  C_19
REMARK   11  A    between atoms: C_19  and  O_20
REMARK   12  A    between atoms: C_19  and  C_21
REMARK   13  A    between atoms: C_21  and  O_23
REMARK                            x       y       z     vdW  Elec       q    Type
REMARK                         _______ _______ _______ _____ _____    ______ ____
ROOT
ATOM      1  O   HOH     2       0.000   0.387   0.000  0.00  0.00    +0.000 OA
ATOM      2  H   HOH     2       0.970   0.387   0.000  0.00  0.00    +0.000 HD
ATOM      3  H   HOH     2      -0.323   0.893   0.762  0.00  0.00    +0.000 HD
ENDROOT
TORSDOF 0
REMARK  Name = ../data/sim29/CHEMBL1434513.pdb
REMARK  13 active torsions:
REMARK  status: ('A' for Active; 'I' for Inactive)
REMARK    1  A    between atoms: N_1  and  C_2
REMARK    2  A    between atoms: C_2  and  C_3
REMARK    3  A    between atoms: C_3  and  O_4
REMARK    4  A    between atoms: C_3  and  C_5
REMARK    5  A    between atoms: C_8  and  O_9
REMARK    6  A    between atoms: C_10  and  O_11
REMARK    7  A    between atoms: C_15  and  O_16
REMARK    8  A    between atoms: C_15  and  C_17
REMARK    9  A    between atoms: C_17  and  O_18
REMARK   10  A    between atoms: C_17  and  C_19
REMARK   11  A    between atoms: C_19  and  O_20
REMARK   12  A    between atoms: C_19  and  C_21
REMARK   13  A    between atoms: C_21  and  O_23
REMARK                            x       y       z     vdW  Elec       q    Type
REMARK                         _______ _______ _______ _____ _____    ______ ____
ROOT
ATOM      1  C   UNL     3      -0.551  -0.594   0.613  0.00  0.00    +0.000 C 
ENDROOT
BRANCH   1   3
ATOM      2  O   UNL     3      -1.434  -0.762  -1.553  0.00  0.00    +0.000 OA
ATOM      3  C   UNL     3      -1.412  -0.119  -0.474  0.00  0.00    +0.000 C 
BRANCH   3   4
ATOM      4  O   UNL     3      -2.218   1.009  -0.399  0.00  0.00    +0.000 OA
ATOM      5  H   UNL     3      -2.235   1.521   0.385  0.00  0.00    +0.000 HD
ENDBRANCH   3   4
ENDBRANCH   1   3
BRANCH   1   6
ATOM      6  O   UNL     3      -0.623   0.207   1.743  0.00  0.00    +0.000 OA
ATOM      7  H   UNL     3      -0.268   1.086   1.539  0.00  0.00    +0.000 HD
ENDBRANCH   1   6
BRANCH   1   8
ATOM      8  C   UNL     3       0.880  -0.816   0.203  0.00  0.00    +0.000 C 
BRANCH   8   9
ATOM      9  O   UNL     3       0.875  -1.617  -0.921  0.00  0.00    +0.000 OA
ATOM     10  H   UNL     3       0.409  -1.162  -1.640  0.00  0.00    +0.000 HD
ENDBRANCH   8   9
BRANCH   8  11
ATOM     11  C   UNL     3       1.620   0.411  -0.066  0.00  0.00    +0.000 C 
ATOM     12  O   UNL     3       2.128   0.582  -1.202  0.00  0.00    +0.000 OA
BRANCH  11  13
ATOM     13  O   UNL     3       1.813   1.431   0.857  0.00  0.00    +0.000 OA
ATOM     14  H   UNL     3       1.456   1.356   1.720  0.00  0.00    +0.000 HD
ENDBRANCH  11  13
ENDBRANCH   8  11
ENDBRANCH   1   8
TORSDOF 7
