REMARK  Name = ../data/sim29/CHEMBL14927.pdb
REMARK  11 active torsions:
REMARK  status: ('A' for Active; 'I' for Inactive)
REMARK    1  A    between atoms: C1_1  and  C2_2
REMARK    2  A    between atoms: C2_2  and  C3_3
REMARK    3  A    between atoms: C3_3  and  C4_4
REMARK    4  A    between atoms: C3_3  and  C10_12
REMARK    5  A    between atoms: C7_7  and  O1_8
REMARK    6  A    between atoms: C8_9  and  N1_10
REMARK    7  A    between atoms: C10_12  and  C11_13
REMARK    8  A    between atoms: C10_12  and  C13_15
REMARK    9  A    between atoms: C11_13  and  C12_14
REMARK   10  A    between atoms: C16_18  and  O2_19
REMARK   11  A    between atoms: C17_20  and  N2_21
REMARK                            x       y       z     vdW  Elec       q    Type
REMARK                         _______ _______ _______ _____ _____    ______ ____
ROOT
ATOM      1  C3  UNL     1      -0.615  -1.163  -0.873  0.00  0.00    +0.000 C 
ENDROOT
BRANCH   1   2
ATOM      2  C4  UNL     1      -1.473  -0.193  -0.187  0.00  0.00    +0.000 A 
ATOM      3  C5  UNL     1      -1.885  -0.329   1.121  0.00  0.00    +0.000 A 
ATOM      4  C6  UNL     1      -2.709   0.629   1.714  0.00  0.00    +0.000 A 
ATOM      5  C7  UNL     1      -3.138   1.738   1.022  0.00  0.00    +0.000 A 
ATOM      6  C8  UNL     1      -2.733   1.884  -0.284  0.00  0.00    +0.000 A 
ATOM      7  C9  UNL     1      -1.919   0.928  -0.854  0.00  0.00    +0.000 A 
BRANCH   6   8
ATOM      8  N1  UNL     1      -3.149   3.015  -1.045  0.00  0.00    +0.000 N 
ATOM      9  H   UNL     1      -3.730   3.697  -0.636  0.00  0.00    +0.000 HD
ATOM     10  H   UNL     1      -2.855   3.115  -1.979  0.00  0.00    +0.000 HD
ENDBRANCH   6   8
BRANCH   5  11
ATOM     11  O1  UNL     1      -3.962   2.672   1.655  0.00  0.00    +0.000 OA
ATOM     12  H   UNL     1      -4.219   2.542   2.547  0.00  0.00    +0.000 HD
ENDBRANCH   5  11
ENDBRANCH   1   2
BRANCH   1  14
ATOM     13  C1  UNL     1      -2.022  -3.126  -0.127  0.00  0.00    +0.000 C 
ATOM     14  C2  UNL     1      -1.392  -2.371  -1.261  0.00  0.00    +0.000 C 
ENDBRANCH   1  14
BRANCH   1  15
ATOM     15  C10 UNL     1       0.661  -1.461  -0.134  0.00  0.00    +0.000 C 
BRANCH  15  16
ATOM     16  C13 UNL     1       1.389  -0.219   0.157  0.00  0.00    +0.000 A 
ATOM     17  C14 UNL     1       1.732   0.088   1.455  0.00  0.00    +0.000 A 
ATOM     18  C15 UNL     1       2.419   1.244   1.793  0.00  0.00    +0.000 A 
ATOM     19  C16 UNL     1       2.788   2.141   0.814  0.00  0.00    +0.000 A 
ATOM     20  C17 UNL     1       2.451   1.845  -0.490  0.00  0.00    +0.000 A 
ATOM     21  C18 UNL     1       1.765   0.689  -0.815  0.00  0.00    +0.000 A 
BRANCH  20  22
ATOM     22  N2  UNL     1       2.822   2.759  -1.532  0.00  0.00    +0.000 N 
ATOM     23  H   UNL     1       3.311   3.585  -1.312  0.00  0.00    +0.000 HD
ATOM     24  H   UNL     1       2.588   2.560  -2.467  0.00  0.00    +0.000 HD
ENDBRANCH  20  22
BRANCH  19  25
ATOM     25  O2  UNL     1       3.482   3.321   1.105  0.00  0.00    +0.000 OA
ATOM     26  H   UNL     1       3.712   3.523   1.991  0.00  0.00    +0.000 HD
ENDBRANCH  19  25
ENDBRANCH  15  16
BRANCH  15  27
ATOM     27  C11 UNL     1       1.537  -2.304  -1.036  0.00  0.00    +0.000 C 
ATOM     28  C12 UNL     1       2.854  -2.642  -0.358  0.00  0.00    +0.000 C 
ENDBRANCH  15  27
ENDBRANCH   1  15
TORSDOF 9
