REMARK  Name = ../data/sim29/CHEMBL432.pdb
REMARK  6 active torsions:
REMARK  status: ('A' for Active; 'I' for Inactive)
REMARK    1  A    between atoms: N_1  and  C_2
REMARK    2  A    between atoms: C_2  and  C_3
REMARK    3  A    between atoms: C_3  and  O_4
REMARK    4  A    between atoms: C_3  and  C_5
REMARK    5  A    between atoms: C_8  and  O_9
REMARK    6  A    between atoms: C_10  and  O_11
REMARK                            x       y       z     vdW  Elec       q    Type
REMARK                         _______ _______ _______ _____ _____    ______ ____
ROOT
ATOM      1  C   UNL     1       0.092  -0.236  -0.416  0.00  0.00    +0.000 A 
ATOM      2  C   UNL     1      -0.301   1.069  -0.459  0.00  0.00    +0.000 A 
ATOM      3  C   UNL     1      -1.569   1.416  -0.041  0.00  0.00    +0.000 A 
ATOM      4  C   UNL     1      -2.482   0.490   0.429  0.00  0.00    +0.000 A 
ATOM      5  C   UNL     1      -2.083  -0.831   0.473  0.00  0.00    +0.000 A 
ATOM      6  C   UNL     1      -0.797  -1.184   0.049  0.00  0.00    +0.000 A 
ENDROOT
BRANCH   4   7
ATOM      7  O   UNL     1      -3.768   0.872   0.848  0.00  0.00    +0.000 OA
ATOM      8  H   UNL     1      -4.024   1.773   0.812  0.00  0.00    +0.000 HD
ENDBRANCH   4   7
BRANCH   5   9
ATOM      9  O   UNL     1      -2.989  -1.759   0.941  0.00  0.00    +0.000 OA
ATOM     10  H   UNL     1      -3.841  -1.484   1.216  0.00  0.00    +0.000 HD
ENDBRANCH   5   9
BRANCH   1  11
ATOM     11  C   UNL     1       1.432  -0.690  -0.845  0.00  0.00    +0.000 C 
BRANCH  11  12
ATOM     12  O   UNL     1       1.978  -1.597   0.091  0.00  0.00    +0.000 OA
ATOM     13  H   UNL     1       2.091  -1.151   0.945  0.00  0.00    +0.000 HD
ENDBRANCH  11  12
BRANCH  11  14
ATOM     14  C   UNL     1       2.419   0.454  -0.932  0.00  0.00    +0.000 C 
BRANCH  14  15
ATOM     15  N   UNL     1       2.604   1.103   0.334  0.00  0.00    +0.000 N 
ATOM     16  H   UNL     1       3.274   1.865   0.231  0.00  0.00    +0.000 HD
ATOM     17  H   UNL     1       2.957   0.429   1.013  0.00  0.00    +0.000 HD
ATOM     18  H   UNL     1       1.712   1.477   0.658  0.00  0.00    +0.000 HD
ENDBRANCH  14  15
ENDBRANCH  11  14
ENDBRANCH   1  11
TORSDOF 6
