REMARK  Name = ../data/sim29/CHEMBL1160982.pdb
REMARK  7 active torsions:
REMARK  status: ('A' for Active; 'I' for Inactive)
REMARK    1  A    between atoms: C_1  and  C_2
REMARK    2  A    between atoms: C_2  and  N_3
REMARK    3  A    between atoms: C_2  and  C_4
REMARK    4  A    between atoms: C_4  and  O_5
REMARK    5  A    between atoms: C_4  and  C_6
REMARK    6  A    between atoms: C_9  and  O_10
REMARK    7  A    between atoms: C_11  and  O_12
REMARK                            x       y       z     vdW  Elec       q    Type
REMARK                         _______ _______ _______ _____ _____    ______ ____
ROOT
ATOM      1  C   UNL     1       0.352  -0.409   0.314  0.00  0.00    +0.000 A 
ATOM      2  C   UNL     1       0.843   0.109   1.482  0.00  0.00    +0.000 A 
ATOM      3  C   UNL     1       2.097   0.658   1.572  0.00  0.00    +0.000 A 
ATOM      4  C   UNL     1       2.887   0.685   0.430  0.00  0.00    +0.000 A 
ATOM      5  C   UNL     1       2.409   0.169  -0.755  0.00  0.00    +0.000 A 
ATOM      6  C   UNL     1       1.138  -0.380  -0.813  0.00  0.00    +0.000 A 
ENDROOT
BRANCH   4   7
ATOM      7  O   UNL     1       4.147   1.249   0.564  0.00  0.00    +0.000 OA
ATOM      8  H   UNL     1       4.424   1.586   1.393  0.00  0.00    +0.000 HD
ENDBRANCH   4   7
BRANCH   5   9
ATOM      9  O   UNL     1       3.208   0.203  -1.882  0.00  0.00    +0.000 OA
ATOM     10  H   UNL     1       4.067   0.576  -1.837  0.00  0.00    +0.000 HD
ENDBRANCH   5   9
BRANCH   1  11
ATOM     11  C   UNL     1      -1.000  -0.984   0.285  0.00  0.00    +0.000 C 
BRANCH  11  13
ATOM     12  C   UNL     1      -3.364  -0.614  -0.358  0.00  0.00    +0.000 C 
ATOM     13  C   UNL     1      -1.978  -0.020  -0.366  0.00  0.00    +0.000 C 
BRANCH  13  14
ATOM     14  N   UNL     1      -1.979   1.239   0.327  0.00  0.00    +0.000 N 
ATOM     15  H   UNL     1      -2.268   1.094   1.294  0.00  0.00    +0.000 HD
ATOM     16  H   UNL     1      -2.629   1.878  -0.130  0.00  0.00    +0.000 HD
ATOM     17  H   UNL     1      -1.040   1.638   0.309  0.00  0.00    +0.000 HD
ENDBRANCH  13  14
ENDBRANCH  11  13
BRANCH  11  18
ATOM     18  O   UNL     1      -1.016  -2.199  -0.403  0.00  0.00    +0.000 OA
ATOM     19  H   UNL     1      -0.747  -2.053  -1.324  0.00  0.00    +0.000 HD
ENDBRANCH  11  18
ENDBRANCH   1  11
TORSDOF 6
