REMARK  Name = ../data/sim29/CHEMBL764.pdb
REMARK  7 active torsions:
REMARK  status: ('A' for Active; 'I' for Inactive)
REMARK    1  A    between atoms: C_1  and  C_2
REMARK    2  A    between atoms: C_2  and  N_3
REMARK    3  A    between atoms: C_2  and  C_4
REMARK    4  A    between atoms: C_4  and  O_5
REMARK    5  A    between atoms: C_4  and  C_6
REMARK    6  A    between atoms: C_9  and  O_10
REMARK    7  A    between atoms: C_11  and  O_12
REMARK                            x       y       z     vdW  Elec       q    Type
REMARK                         _______ _______ _______ _____ _____    ______ ____
ROOT
ATOM      1  C   UNL     1       0.203   0.122   0.409  0.00  0.00    +0.000 A 
ATOM      2  C   UNL     1       0.648   0.688  -0.766  0.00  0.00    +0.000 A 
ATOM      3  C   UNL     1       1.974   0.621  -1.141  0.00  0.00    +0.000 A 
ATOM      4  C   UNL     1       2.902  -0.018  -0.350  0.00  0.00    +0.000 A 
ATOM      5  C   UNL     1       2.486  -0.598   0.838  0.00  0.00    +0.000 A 
ATOM      6  C   UNL     1       1.151  -0.513   1.185  0.00  0.00    +0.000 A 
ENDROOT
BRANCH   4   7
ATOM      7  O   UNL     1       4.241  -0.065  -0.766  0.00  0.00    +0.000 OA
ATOM      8  H   UNL     1       4.495   0.336  -1.574  0.00  0.00    +0.000 HD
ENDBRANCH   4   7
BRANCH   5   9
ATOM      9  O   UNL     1       3.422  -1.245   1.642  0.00  0.00    +0.000 OA
ATOM     10  H   UNL     1       4.320  -1.284   1.377  0.00  0.00    +0.000 HD
ENDBRANCH   5   9
BRANCH   1  11
ATOM     11  C   UNL     1      -1.226   0.196   0.810  0.00  0.00    +0.000 C 
BRANCH  11  13
ATOM     12  C   UNL     1      -1.984  -0.392  -1.469  0.00  0.00    +0.000 C 
ATOM     13  C   UNL     1      -2.109   0.608  -0.343  0.00  0.00    +0.000 C 
BRANCH  13  14
ATOM     14  N   UNL     1      -3.502   0.592   0.111  0.00  0.00    +0.000 N 
ATOM     15  H   UNL     1      -3.746  -0.347   0.425  0.00  0.00    +0.000 HD
ATOM     16  H   UNL     1      -4.114   0.863  -0.659  0.00  0.00    +0.000 HD
ATOM     17  H   UNL     1      -3.616   1.249   0.883  0.00  0.00    +0.000 HD
ENDBRANCH  13  14
ENDBRANCH  11  13
BRANCH  11  18
ATOM     18  O   UNL     1      -1.570  -1.102   1.250  0.00  0.00    +0.000 OA
ATOM     19  H   UNL     1      -1.428  -1.736   0.530  0.00  0.00    +0.000 HD
ENDBRANCH  11  18
ENDBRANCH   1  11
TORSDOF 6
