REMARK  Name = ../data/sim29/CHEMBL677.pdb
REMARK  7 active torsions:
REMARK  status: ('A' for Active; 'I' for Inactive)
REMARK    1  A    between atoms: C_1  and  C_2
REMARK    2  A    between atoms: C_2  and  N_3
REMARK    3  A    between atoms: C_2  and  C_4
REMARK    4  A    between atoms: C_4  and  O_5
REMARK    5  A    between atoms: C_4  and  C_6
REMARK    6  A    between atoms: C_9  and  O_10
REMARK    7  A    between atoms: C_11  and  O_12
REMARK                            x       y       z     vdW  Elec       q    Type
REMARK                         _______ _______ _______ _____ _____    ______ ____
ROOT
ATOM      1  C   UNL     1       0.372   0.123  -0.377  0.00  0.00    +0.000 A 
ATOM      2  C   UNL     1       0.656  -1.193  -0.061  0.00  0.00    +0.000 A 
ATOM      3  C   UNL     1       1.880  -1.588   0.425  0.00  0.00    +0.000 A 
ATOM      4  C   UNL     1       2.837  -0.601   0.589  0.00  0.00    +0.000 A 
ATOM      5  C   UNL     1       2.579   0.724   0.279  0.00  0.00    +0.000 A 
ATOM      6  C   UNL     1       1.338   1.078  -0.205  0.00  0.00    +0.000 A 
ENDROOT
BRANCH   4   7
ATOM      7  O   UNL     1       4.096  -0.912   1.072  0.00  0.00    +0.000 OA
ATOM      8  H   UNL     1       4.308  -1.798   1.293  0.00  0.00    +0.000 HD
ENDBRANCH   4   7
BRANCH   5   9
ATOM      9  O   UNL     1       3.580   1.696   0.460  0.00  0.00    +0.000 OA
ATOM     10  H   UNL     1       4.421   1.447   0.790  0.00  0.00    +0.000 HD
ENDBRANCH   5   9
BRANCH   1  11
ATOM     11  C   UNL     1      -0.978   0.450  -0.895  0.00  0.00    +0.000 C 
BRANCH  11  13
ATOM     12  C   UNL     1      -2.264  -0.744   0.896  0.00  0.00    +0.000 C 
ATOM     13  C   UNL     1      -2.008   0.554   0.197  0.00  0.00    +0.000 C 
BRANCH  13  14
ATOM     14  N   UNL     1      -3.258   0.966  -0.440  0.00  0.00    +0.000 N 
ATOM     15  H   UNL     1      -3.539   0.263  -1.123  0.00  0.00    +0.000 HD
ATOM     16  H   UNL     1      -3.121   1.861  -0.910  0.00  0.00    +0.000 HD
ATOM     17  H   UNL     1      -3.985   1.062   0.269  0.00  0.00    +0.000 HD
ENDBRANCH  13  14
ENDBRANCH  11  13
BRANCH  11  18
ATOM     18  O   UNL     1      -1.348  -0.482  -1.857  0.00  0.00    +0.000 OA
ATOM     19  H   UNL     1      -1.393  -1.363  -1.453  0.00  0.00    +0.000 HD
ENDBRANCH  11  18
ENDBRANCH   1  11
TORSDOF 6
