REMARK  Name = ../data/sim29/CHEMBL3248963.pdb
REMARK  6 active torsions:
REMARK  status: ('A' for Active; 'I' for Inactive)
REMARK    1  A    between atoms: N_2  and  C_3
REMARK    2  A    between atoms: C_3  and  C_4
REMARK    3  A    between atoms: C_4  and  O_5
REMARK    4  A    between atoms: C_4  and  C_6
REMARK    5  A    between atoms: C_9  and  O_10
REMARK    6  A    between atoms: C_11  and  O_12
REMARK                            x       y       z     vdW  Elec       q    Type
REMARK                         _______ _______ _______ _____ _____    ______ ____
ROOT
ATOM      1 CL   UNL     1       0.690   0.000   0.000  0.00  0.00    +0.000 Cl
ATOM      2  H   UNL     1       1.918   0.000   0.000  0.00  0.00    +0.000 HD
ENDROOT
TORSDOF 0
REMARK  Name = ../data/sim29/CHEMBL3248963.pdb
REMARK  6 active torsions:
REMARK  status: ('A' for Active; 'I' for Inactive)
REMARK    1  A    between atoms: N_2  and  C_3
REMARK    2  A    between atoms: C_3  and  C_4
REMARK    3  A    between atoms: C_4  and  O_5
REMARK    4  A    between atoms: C_4  and  C_6
REMARK    5  A    between atoms: C_9  and  O_10
REMARK    6  A    between atoms: C_11  and  O_12
REMARK                            x       y       z     vdW  Elec       q    Type
REMARK                         _______ _______ _______ _____ _____    ______ ____
ROOT
ATOM      1  C   UNL     2      -0.285  -0.407  -0.149  0.00  0.00    +0.000 A 
ATOM      2  C   UNL     2       0.339  -1.137   0.841  0.00  0.00    +0.000 A 
ATOM      3  C   UNL     2       1.710  -1.076   1.036  0.00  0.00    +0.000 A 
ATOM      4  C   UNL     2       2.506  -0.280   0.244  0.00  0.00    +0.000 A 
ATOM      5  C   UNL     2       1.904   0.456  -0.749  0.00  0.00    +0.000 A 
ATOM      6  C   UNL     2       0.519   0.389  -0.939  0.00  0.00    +0.000 A 
ENDROOT
BRANCH   4   7
ATOM      7  O   UNL     2       3.891  -0.206   0.425  0.00  0.00    +0.000 OA
ATOM      8  H   UNL     2       4.303  -0.707   1.101  0.00  0.00    +0.000 HD
ENDBRANCH   4   7
BRANCH   5   9
ATOM      9  O   UNL     2       2.636   1.283  -1.590  0.00  0.00    +0.000 OA
ATOM     10  H   UNL     2       3.565   1.350  -1.489  0.00  0.00    +0.000 HD
ENDBRANCH   5   9
BRANCH   1  11
ATOM     11  C   UNL     2      -1.749  -0.475  -0.353  0.00  0.00    +0.000 C 
BRANCH  11  12
ATOM     12  O   UNL     2      -2.236  -1.778  -0.320  0.00  0.00    +0.000 OA
ATOM     13  H   UNL     2      -2.100  -2.152   0.565  0.00  0.00    +0.000 HD
ENDBRANCH  11  12
BRANCH  11  14
ATOM     14  C   UNL     2      -2.507   0.438   0.573  0.00  0.00    +0.000 C 
BRANCH  14  15
ATOM     15  N   UNL     2      -1.921   1.761   0.460  0.00  0.00    +0.000 N 
ATOM     16  H   UNL     2      -2.415   2.405   1.078  0.00  0.00    +0.000 HD
ATOM     17  H   UNL     2      -1.999   2.086  -0.504  0.00  0.00    +0.000 HD
ATOM     18  H   UNL     2      -0.937   1.721   0.726  0.00  0.00    +0.000 HD
ENDBRANCH  14  15
ENDBRANCH  11  14
ENDBRANCH   1  11
TORSDOF 6
