REMARK  Name = ../data/sim29/CHEMBL1256471.pdb
REMARK  7 active torsions:
REMARK  status: ('A' for Active; 'I' for Inactive)
REMARK    1  A    between atoms: C_1  and  C_2
REMARK    2  A    between atoms: C_2  and  N_3
REMARK    3  A    between atoms: C_2  and  C_4
REMARK    4  A    between atoms: C_4  and  O_5
REMARK    5  A    between atoms: C_4  and  C_6
REMARK    6  A    between atoms: C_9  and  O_10
REMARK    7  A    between atoms: C_11  and  O_12
REMARK                            x       y       z     vdW  Elec       q    Type
REMARK                         _______ _______ _______ _____ _____    ______ ____
ROOT
ATOM      1  C   UNL     1       0.278  -0.206  -0.605  0.00  0.00    +0.000 A 
ATOM      2  C   UNL     1       0.631  -1.227   0.251  0.00  0.00    +0.000 A 
ATOM      3  C   UNL     1       1.836  -1.229   0.943  0.00  0.00    +0.000 A 
ATOM      4  C   UNL     1       2.726  -0.194   0.790  0.00  0.00    +0.000 A 
ATOM      5  C   UNL     1       2.392   0.829  -0.056  0.00  0.00    +0.000 A 
ATOM      6  C   UNL     1       1.187   0.821  -0.742  0.00  0.00    +0.000 A 
ENDROOT
BRANCH   4   7
ATOM      7  O   UNL     1       3.934  -0.222   1.500  0.00  0.00    +0.000 OA
ATOM      8  H   UNL     1       4.126  -0.941   2.070  0.00  0.00    +0.000 HD
ENDBRANCH   4   7
BRANCH   5   9
ATOM      9  O   UNL     1       3.283   1.875  -0.216  0.00  0.00    +0.000 OA
ATOM     10  H   UNL     1       4.095   1.874   0.251  0.00  0.00    +0.000 HD
ENDBRANCH   5   9
BRANCH   1  11
ATOM     11  C   UNL     1      -1.015  -0.260  -1.311  0.00  0.00    +0.000 C 
BRANCH  11  13
ATOM     12  C   UNL     1      -2.605  -0.733   0.576  0.00  0.00    +0.000 C 
ATOM     13  C   UNL     1      -2.174   0.220  -0.488  0.00  0.00    +0.000 C 
BRANCH  13  14
ATOM     14  N   UNL     1      -1.944   1.508   0.113  0.00  0.00    +0.000 N 
ATOM     15  H   UNL     1      -1.190   1.435   0.796  0.00  0.00    +0.000 HD
ATOM     16  H   UNL     1      -2.795   1.823   0.579  0.00  0.00    +0.000 HD
ATOM     17  H   UNL     1      -1.684   2.179  -0.610  0.00  0.00    +0.000 HD
ENDBRANCH  13  14
ENDBRANCH  11  13
BRANCH  11  18
ATOM     18  O   UNL     1      -1.293  -1.486  -1.855  0.00  0.00    +0.000 OA
ATOM     19  H   UNL     1      -1.413  -2.135  -1.144  0.00  0.00    +0.000 HD
ENDBRANCH  11  18
ENDBRANCH   1  11
TORSDOF 6
