REMARK  Name = ../data/sim29/CHEMBL270197.pdb
REMARK  3 active torsions:
REMARK  status: ('A' for Active; 'I' for Inactive)
REMARK    1  A    between atoms: N1_1  and  C1_2
REMARK    2  A    between atoms: C4_5  and  O1_6
REMARK    3  A    between atoms: C6_8  and  O2_9
REMARK                            x       y       z     vdW  Elec       q    Type
REMARK                         _______ _______ _______ _____ _____    ______ ____
ROOT
ATOM      1  C1  UNL     1      -0.974   0.390   0.013  0.00  0.00    +0.000 A 
ATOM      2  C2  UNL     1      -0.004   1.359  -0.137  0.00  0.00    +0.000 A 
ATOM      3  C3  UNL     1       1.335   1.050  -0.237  0.00  0.00    +0.000 A 
ATOM      4  C4  UNL     1       1.769  -0.259  -0.192  0.00  0.00    +0.000 A 
ATOM      5  C5  UNL     1       0.799  -1.228  -0.042  0.00  0.00    +0.000 A 
ATOM      6  C6  UNL     1      -0.564  -0.926   0.061  0.00  0.00    +0.000 A 
ENDROOT
BRANCH   1   7
ATOM      7  N1  UNL     1      -2.362   0.732   0.116  0.00  0.00    +0.000 N 
ATOM      8  H   UNL     1      -2.640   1.676   0.080  0.00  0.00    +0.000 HD
ATOM      9  H   UNL     1      -3.037   0.023   0.223  0.00  0.00    +0.000 HD
ENDBRANCH   1   7
BRANCH   4  10
ATOM     10  O1  UNL     1       3.115  -0.592  -0.291  0.00  0.00    +0.000 OA
ATOM     11  H   UNL     1       3.758   0.082  -0.392  0.00  0.00    +0.000 HD
ENDBRANCH   4  10
BRANCH   6  12
ATOM     12  O2  UNL     1      -1.507  -1.930   0.210  0.00  0.00    +0.000 OA
ATOM     13  H   UNL     1      -2.416  -1.713   0.278  0.00  0.00    +0.000 HD
ENDBRANCH   6  12
TORSDOF 3
